SandboxData_C2S7_20210305/C2S7N00793/scenario_102/case.raw
0,100.0,33,0,0,50.0
GRID OPTIMIZATION COMPETITION CHALLENGE 2
INPUT DATA FILES ARE RAW JSON CON
1,'            ',115.0,1,1,1,1,1.44877959,-0.14908129,2.12,0.465,2.12,0.465
2,'            ',115.0,1,1,1,1,1.4863785,-2.62609037,2.12,0.465,2.12,0.465
3,'            ',35.0,1,1,1,1,1.53156178,-1.34123335,2.12,0.465,2.12,0.465
4,'            ',115.0,1,1,1,1,1.39034142,1.68453809,2.12,0.465,2.12,0.465
5,'            ',13.0,1,1,1,1,1.48546157,-2.83710864,2.12,0.465,2.12,0.465
6,'            ',14.0,1,1,1,1,1.29234878,-1.72077925,2.12,0.465,2.12,0.465
7,'            ',115.0,1,1,1,1,1.52597915,-1.17215567,2.12,0.465,2.12,0.465
8,'            ',13.0,1,1,1,1,1.48529998,-2.59626425,2.12,0.465,2.12,0.465
9,'            ',35.0,1,1,1,1,1.49377073,-0.87779645,2.12,0.465,2.12,0.465
10,'            ',115.0,1,1,1,1,1.48505342,-2.81497463,2.12,0.465,2.12,0.465
11,'            ',115.0,1,1,1,1,1.59590605,-2.81469292,2.12,0.465,2.12,0.465
12,'            ',35.0,1,1,1,1,1.51732074,-0.50693531,2.12,0.465,2.12,0.465
13,'            ',13.0,1,1,1,1,1.54360717,-1.71358652,2.12,0.465,2.12,0.465
15,'            ',35.0,1,1,1,1,1.71869898,-1.34243051,2.12,0.465,2.12,0.465
16,'            ',115.0,1,1,1,1,1.4021798,1.45785254,2.12,0.465,2.12,0.465
17,'            ',115.0,1,1,1,1,1.39846586,1.07253115,2.12,0.465,2.12,0.465
18,'            ',230.0,1,1,1,1,1.58906984,-0.43074597,2.12,0.465,2.12,0.465
19,'            ',230.0,1,1,1,1,1.58713548,-0.40268974,2.12,0.465,2.12,0.465
20,'            ',13.0,1,1,1,1,1.39035194,1.65304868,2.12,0.465,2.12,0.465
21,'            ',115.0,1,1,1,1,1.60715924,-3.84260595,2.12,0.465,2.12,0.465
22,'            ',115.0,1,1,1,1,1.50539925,-0.41847099,2.12,0.465,2.12,0.465
23,'            ',115.0,2,1,1,1,1.40645803,3.27033715,2.12,0.465,2.12,0.465
24,'            ',115.0,1,1,1,1,1.52816268,-1.57832776,2.12,0.465,2.12,0.465
25,'            ',14.0,1,1,1,1,1.55081853,-1.72077925,2.12,0.465,2.12,0.465
27,'            ',115.0,1,1,1,1,1.48488584,-2.8086055,2.12,0.465,2.12,0.465
28,'            ',35.0,1,1,1,1,1.51528513,-2.25809133,2.12,0.465,2.12,0.465
30,'            ',115.0,1,1,1,1,1.52999509,-1.49854151,2.12,0.465,2.12,0.465
31,'            ',230.0,2,1,1,1,1.58881192,-0.42961284,2.12,0.465,2.12,0.465
32,'            ',115.0,1,1,1,1,1.48501762,-2.6866921,2.12,0.465,2.12,0.465
33,'            ',230.0,1,1,1,1,1.57844264,-0.73704199,2.12,0.465,2.12,0.465
34,'            ',35.0,1,1,1,1,1.4741319,0.63041205,2.12,0.465,2.12,0.465
35,'            ',230.0,1,1,1,1,1.58713684,-0.40269317,2.12,0.465,2.12,0.465
36,'            ',230.0,1,1,1,1,1.57844264,-0.73704199,2.12,0.465,2.12,0.465
37,'            ',230.0,1,1,1,1,1.56150307,-2.03499791,2.12,0.465,2.12,0.465
38,'            ',230.0,1,1,1,1,1.58998747,-0.47658488,2.12,0.465,2.12,0.465
39,'            ',35.0,1,1,1,1,1.28833446,-0.17484034,2.12,0.465,2.12,0.465
40,'            ',115.0,1,1,1,1,1.38694803,1.61466169,2.12,0.465,2.12,0.465
41,'            ',230.0,1,1,1,1,1.52348231,-2.15038052,2.12,0.465,2.12,0.465
43,'            ',115.0,2,1,1,1,1.38781147,2.33226529,2.12,0.465,2.12,0.465
44,'            ',115.0,1,1,1,1,1.4156888,2.88177146,2.12,0.465,2.12,0.465
45,'            ',230.0,1,1,1,1,1.57844264,-0.73704199,2.12,0.465,2.12,0.465
46,'            ',230.0,2,1,1,1,1.47660506,-1.44139452,2.12,0.465,2.12,0.465
47,'            ',115.0,2,1,1,1,1.38158385,1.95987824,2.12,0.465,2.12,0.465
49,'            ',35.0,1,1,1,1,1.4741319,0.63041205,2.12,0.465,2.12,0.465
50,'            ',115.0,1,1,1,1,1.48538268,-2.60486743,2.12,0.465,2.12,0.465
51,'            ',13.0,1,1,1,1,1.5277383,-1.59423567,2.12,0.465,2.12,0.465
52,'            ',230.0,2,1,1,1,1.52473088,-2.15265266,2.12,0.465,2.12,0.465
53,'            ',115.0,1,1,1,1,1.60924569,-2.9527963,2.12,0.465,2.12,0.465
54,'            ',35.0,1,1,1,1,1.58494753,-2.71538611,2.12,0.465,2.12,0.465
55,'            ',230.0,2,1,1,1,1.56725721,-1.72077925,2.12,0.465,2.12,0.465
56,'            ',35.0,1,1,1,1,1.37945127,-0.47771769,2.12,0.465,2.12,0.465
57,'            ',115.0,1,1,1,1,1.60174494,-4.15097109,2.12,0.465,2.12,0.465
58,'            ',115.0,1,1,1,1,1.61314207,-2.67791008,2.12,0.465,2.12,0.465
59,'            ',35.0,2,1,1,1,1.40673751,3.5996629,2.12,0.465,2.12,0.465
60,'            ',115.0,1,1,1,1,1.49419268,-0.84861507,2.12,0.465,2.12,0.465
61,'            ',13.0,1,1,1,1,1.48484352,-2.81634747,2.12,0.465,2.12,0.465
62,'            ',115.0,1,1,1,1,1.60975278,-2.92337501,2.12,0.465,2.12,0.465
63,'            ',230.0,1,1,1,1,1.47899779,-1.45311772,2.12,0.465,2.12,0.465
64,'            ',35.0,1,1,1,1,1.40588235,3.25769989,2.12,0.465,2.12,0.465
65,'            ',14.0,2,1,1,1,1.41235711,1.82898101,2.12,0.465,2.12,0.465
66,'            ',230.0,1,1,1,1,1.58906984,-0.43074597,2.12,0.465,2.12,0.465
67,'            ',115.0,1,1,1,1,1.4764336,0.66122337,2.12,0.465,2.12,0.465
68,'            ',115.0,1,1,1,1,1.60891596,-3.42765304,2.12,0.465,2.12,0.465
69,'            ',230.0,1,1,1,1,1.58683304,-0.39825083,2.12,0.465,2.12,0.465
70,'            ',35.0,1,1,1,1,1.51951095,1.53593721,2.12,0.465,2.12,0.465
71,'            ',115.0,2,1,1,1,1.37310527,2.41440794,2.12,0.465,2.12,0.465
72,'            ',115.0,1,1,1,1,1.48482133,-2.78393973,2.12,0.465,2.12,0.465
73,'            ',115.0,1,1,1,1,1.53348909,-1.231485,2.12,0.465,2.12,0.465
74,'            ',115.0,1,1,1,1,1.48538256,-2.58870011,2.12,0.465,2.12,0.465
75,'            ',13.0,1,1,1,1,1.3907323,1.61931149,2.12,0.465,2.12,0.465
76,'            ',115.0,1,1,1,1,1.61029876,-2.88753683,2.12,0.465,2.12,0.465
77,'            ',35.0,1,1,1,1,1.5016288,-2.30643471,2.12,0.465,2.12,0.465
78,'            ',35.0,1,1,1,1,1.5296618,-1.52308944,2.12,0.465,2.12,0.465
79,'            ',230.0,1,1,1,1,1.56048125,-2.08486698,2.12,0.465,2.12,0.465
80,'            ',14.0,1,1,1,1,1.4020867,1.45532766,2.12,0.465,2.12,0.465
81,'            ',115.0,1,1,1,1,1.54379672,-1.6995875,2.12,0.465,2.12,0.465
82,'            ',115.0,1,1,1,1,1.60923089,-2.95394006,2.12,0.465,2.12,0.465
83,'            ',115.0,1,1,1,1,1.60965323,-3.36873694,2.12,0.465,2.12,0.465
84,'            ',115.0,1,1,1,1,1.60865378,-3.44517264,2.12,0.465,2.12,0.465
85,'            ',115.0,1,1,1,1,1.60171369,-4.15316864,2.12,0.465,2.12,0.465
86,'            ',230.0,2,1,1,1,1.57201349,-0.04724327,2.12,0.465,2.12,0.465
87,'            ',230.0,1,1,1,1,1.52463721,-2.16199449,2.12,0.465,2.12,0.465
88,'            ',35.0,1,1,1,1,1.38062406,1.90996058,2.12,0.465,2.12,0.465
89,'            ',35.0,1,1,1,1,1.5710889,-0.53757938,2.12,0.465,2.12,0.465
90,'            ',230.0,2,1,1,1,1.47902384,-1.421501,2.12,0.465,2.12,0.465
91,'            ',115.0,1,1,1,1,1.60988786,-3.33876525,2.12,0.465,2.12,0.465
92,'            ',115.0,1,1,1,1,1.59708923,-2.81106772,2.12,0.465,2.12,0.465
93,'            ',115.0,2,1,1,1,1.39497085,1.12508236,2.12,0.465,2.12,0.465
94,'            ',115.0,1,1,1,1,1.52854728,-1.56180452,2.12,0.465,2.12,0.465
95,'            ',345.0,1,1,1,1,1.59599845,0.10781152,2.12,0.465,2.12,0.465
96,'            ',345.0,1,1,1,1,1.59606358,0.1062226,2.12,0.465,2.12,0.465
97,'            ',345.0,1,1,1,1,1.59814174,0.0598319,2.12,0.465,2.12,0.465
98,'            ',345.0,1,1,1,1,1.59829668,0.05850632,2.12,0.465,2.12,0.465
99,'            ',345.0,1,1,1,1,1.59386343,0.2145399,2.12,0.465,2.12,0.465
100,'            ',345.0,1,1,1,1,1.59399308,0.20850307,2.12,0.465,2.12,0.465
101,'            ',345.0,1,1,1,1,1.60118811,-0.25233486,2.12,0.465,2.12,0.465
102,'            ',345.0,1,1,1,1,1.6019895,-0.18428954,2.12,0.465,2.12,0.465
103,'            ',138.0,1,1,1,1,1.58336863,0.67060959,2.12,0.465,2.12,0.465
104,'            ',138.0,1,1,1,1,1.53288571,10.50973188,2.12,0.465,2.12,0.465
105,'            ',138.0,2,1,1,1,1.53282737,10.44288664,2.12,0.465,2.12,0.465
106,'            ',138.0,1,1,1,1,1.4680917,2.2863731,2.12,0.465,2.12,0.465
107,'            ',138.0,1,1,1,1,1.46764143,2.28302485,2.12,0.465,2.12,0.465
108,'            ',138.0,1,1,1,1,1.54228651,11.82071823,2.12,0.465,2.12,0.465
109,'            ',138.0,1,1,1,1,1.57965658,0.28028258,2.12,0.465,2.12,0.465
110,'            ',138.0,1,1,1,1,1.47035626,2.27297024,2.12,0.465,2.12,0.465
111,'            ',138.0,1,1,1,1,1.47004799,2.27034308,2.12,0.465,2.12,0.465
112,'            ',138.0,1,1,1,1,1.52260017,0.97322096,2.12,0.465,2.12,0.465
113,'            ',138.0,1,1,1,1,1.52260017,0.97322096,2.12,0.465,2.12,0.465
114,'            ',138.0,1,1,1,1,1.52266067,0.97668067,2.12,0.465,2.12,0.465
115,'            ',138.0,1,1,1,1,1.57509087,0.23488912,2.12,0.465,2.12,0.465
116,'            ',138.0,1,1,1,1,1.57746023,0.79141504,2.12,0.465,2.12,0.465
117,'            ',138.0,1,1,1,1,1.57723768,0.7819686,2.12,0.465,2.12,0.465
118,'            ',138.0,1,1,1,1,1.58126016,0.5128112,2.12,0.465,2.12,0.465
119,'            ',138.0,1,1,1,1,1.58133773,0.51634771,2.12,0.465,2.12,0.465
120,'            ',138.0,1,1,1,1,1.57805955,0.25062652,2.12,0.465,2.12,0.465
121,'            ',138.0,1,1,1,1,1.58025795,0.37940878,2.12,0.465,2.12,0.465
122,'            ',138.0,1,1,1,1,1.58027052,0.38050866,2.12,0.465,2.12,0.465
123,'            ',138.0,1,1,1,1,1.5802709,0.3805045,2.12,0.465,2.12,0.465
124,'            ',138.0,1,1,1,1,1.5802583,0.37940481,2.12,0.465,2.12,0.465
125,'            ',138.0,1,1,1,1,1.57968733,0.28189748,2.12,0.465,2.12,0.465
126,'            ',138.0,1,1,1,1,1.5751008,0.23477938,2.12,0.465,2.12,0.465
127,'            ',138.0,1,1,1,1,1.47681552,2.55932524,2.12,0.465,2.12,0.465
128,'            ',138.0,1,1,1,1,1.47679888,2.57677659,2.12,0.465,2.12,0.465
129,'            ',138.0,1,1,1,1,1.46603156,4.45787952,2.12,0.465,2.12,0.465
130,'            ',138.0,1,1,1,1,1.4661285,4.45894965,2.12,0.465,2.12,0.465
131,'            ',138.0,1,1,1,1,1.52249972,0.96731787,2.12,0.465,2.12,0.465
132,'            ',138.0,1,1,1,1,1.57737538,0.78738079,2.12,0.465,2.12,0.465
133,'            ',138.0,1,1,1,1,1.49480059,0.52975251,2.12,0.465,2.12,0.465
134,'            ',138.0,2,1,1,1,1.59103085,-0.09334957,2.12,0.465,2.12,0.465
135,'            ',138.0,1,1,1,1,1.57946542,0.27049262,2.12,0.465,2.12,0.465
136,'            ',138.0,1,1,1,1,1.58023927,0.3783394,2.12,0.465,2.12,0.465
137,'            ',138.0,1,1,1,1,1.41561082,3.6242826,2.12,0.465,2.12,0.465
138,'            ',138.0,1,1,1,1,1.51076629,7.46879805,2.12,0.465,2.12,0.465
139,'            ',138.0,1,1,1,1,1.51076719,7.46882636,2.12,0.465,2.12,0.465
140,'            ',138.0,1,1,1,1,1.47560829,2.2716992,2.12,0.465,2.12,0.465
141,'            ',138.0,1,1,1,1,1.48013002,2.3724221,2.12,0.465,2.12,0.465
142,'            ',138.0,1,1,1,1,1.56680938,1.01610469,2.12,0.465,2.12,0.465
143,'            ',138.0,1,1,1,1,1.56627881,1.01278802,2.12,0.465,2.12,0.465
144,'            ',138.0,1,1,1,1,1.57968568,0.28191593,2.12,0.465,2.12,0.465
145,'            ',138.0,1,1,1,1,1.59541191,0.7781668,2.12,0.465,2.12,0.465
146,'            ',138.0,1,1,1,1,1.46002396,2.06063904,2.12,0.465,2.12,0.465
147,'            ',138.0,1,1,1,1,1.46002212,2.05454763,2.12,0.465,2.12,0.465
148,'            ',138.0,1,1,1,1,1.56505489,0.23209818,2.12,0.465,2.12,0.465
149,'            ',138.0,1,1,1,1,1.56530534,0.24004181,2.12,0.465,2.12,0.465
150,'            ',138.0,1,1,1,1,1.57504367,0.23327443,2.12,0.465,2.12,0.465
151,'            ',138.0,2,1,1,1,1.49233565,4.87544603,2.12,0.465,2.12,0.465
152,'            ',138.0,2,1,1,1,1.58284858,0.6743492,2.12,0.465,2.12,0.465
153,'            ',138.0,1,1,1,1,1.57701025,0.97116412,2.12,0.465,2.12,0.465
154,'            ',138.0,1,1,1,1,1.57694046,0.98216873,2.12,0.465,2.12,0.465
155,'            ',138.0,1,1,1,1,1.46157955,2.29412778,2.12,0.465,2.12,0.465
156,'            ',138.0,1,1,1,1,1.46115098,2.29971494,2.12,0.465,2.12,0.465
157,'            ',138.0,1,1,1,1,1.49624431,1.8950277,2.12,0.465,2.12,0.465
158,'            ',138.0,1,1,1,1,1.49631099,1.89774672,2.12,0.465,2.12,0.465
159,'            ',138.0,2,1,1,1,1.47425792,2.11614189,2.12,0.465,2.12,0.465
160,'            ',138.0,1,1,1,1,1.47416284,2.11671091,2.12,0.465,2.12,0.465
161,'            ',138.0,1,1,1,1,1.58055625,0.43879411,2.12,0.465,2.12,0.465
162,'            ',138.0,1,1,1,1,1.58053593,0.43238315,2.12,0.465,2.12,0.465
163,'            ',138.0,1,1,1,1,1.47322547,2.26531035,2.12,0.465,2.12,0.465
164,'            ',138.0,1,1,1,1,1.47331618,2.26924417,2.12,0.465,2.12,0.465
165,'            ',138.0,1,1,1,1,1.46154919,2.2915947,2.12,0.465,2.12,0.465
166,'            ',138.0,1,1,1,1,1.46113298,2.29762018,2.12,0.465,2.12,0.465
167,'            ',138.0,1,1,1,1,1.55230887,0.68876097,2.12,0.465,2.12,0.465
168,'            ',138.0,1,1,1,1,1.55349074,0.70175458,2.12,0.465,2.12,0.465
169,'            ',138.0,1,1,1,1,1.53926764,11.44113145,2.12,0.465,2.12,0.465
170,'            ',138.0,1,1,1,1,1.53932517,11.44407228,2.12,0.465,2.12,0.465
171,'            ',138.0,1,1,1,1,1.47236992,2.24364866,2.12,0.465,2.12,0.465
172,'            ',138.0,1,1,1,1,1.4722021,2.24316099,2.12,0.465,2.12,0.465
173,'            ',138.0,1,1,1,1,1.44629292,4.11846461,2.12,0.465,2.12,0.465
174,'            ',138.0,1,1,1,1,1.44674397,4.1418878,2.12,0.465,2.12,0.465
175,'            ',138.0,1,1,1,1,1.56995658,0.22260318,2.12,0.465,2.12,0.465
176,'            ',138.0,1,1,1,1,1.56976832,0.2210828,2.12,0.465,2.12,0.465
177,'            ',138.0,1,1,1,1,1.57602315,0.23819406,2.12,0.465,2.12,0.465
178,'            ',138.0,1,1,1,1,1.5760218,0.23821075,2.12,0.465,2.12,0.465
179,'            ',138.0,2,1,1,1,1.51810975,8.41753626,2.12,0.465,2.12,0.465
180,'            ',138.0,1,1,1,1,1.51820687,8.49594633,2.12,0.465,2.12,0.465
181,'            ',138.0,1,1,1,1,1.48030394,3.23561088,2.12,0.465,2.12,0.465
182,'            ',138.0,1,1,1,1,1.48030868,3.21733688,2.12,0.465,2.12,0.465
183,'            ',138.0,1,1,1,1,1.48587527,4.06311777,2.12,0.465,2.12,0.465
184,'            ',138.0,1,1,1,1,1.5790258,0.74151545,2.12,0.465,2.12,0.465
185,'            ',138.0,1,1,1,1,1.5788205,0.73351693,2.12,0.465,2.12,0.465
186,'            ',138.0,1,1,1,1,1.5791637,0.74616405,2.12,0.465,2.12,0.465
187,'            ',138.0,1,1,1,1,1.57898792,0.73884966,2.12,0.465,2.12,0.465
188,'            ',138.0,1,1,1,1,1.48946439,4.51482038,2.12,0.465,2.12,0.465
189,'            ',138.0,1,1,1,1,1.48947416,4.53384128,2.12,0.465,2.12,0.465
190,'            ',138.0,2,1,1,1,1.52653403,1.20916694,2.12,0.465,2.12,0.465
191,'            ',138.0,1,1,1,1,1.57885206,0.2690057,2.12,0.465,2.12,0.465
192,'            ',138.0,1,1,1,1,1.57887468,0.26998537,2.12,0.465,2.12,0.465
193,'            ',138.0,1,1,1,1,1.57953752,0.27416944,2.12,0.465,2.12,0.465
194,'            ',138.0,1,1,1,1,1.5870098,0.870077,2.12,0.465,2.12,0.465
195,'            ',138.0,1,1,1,1,1.58709663,0.87445843,2.12,0.465,2.12,0.465
196,'            ',138.0,1,1,1,1,1.52654568,1.20903479,2.12,0.465,2.12,0.465
197,'            ',138.0,1,1,1,1,1.58027124,0.38050006,2.12,0.465,2.12,0.465
198,'            ',138.0,1,1,1,1,1.5773665,0.24380156,2.12,0.465,2.12,0.465
199,'            ',138.0,1,1,1,1,1.57736932,0.24391745,2.12,0.465,2.12,0.465
200,'            ',138.0,1,1,1,1,1.4633424,2.28717849,2.12,0.465,2.12,0.465
201,'            ',138.0,1,1,1,1,1.462903,2.28505325,2.12,0.465,2.12,0.465
202,'            ',138.0,1,1,1,1,1.46589958,2.2814981,2.12,0.465,2.12,0.465
203,'            ',138.0,1,1,1,1,1.46635021,2.28484943,2.12,0.465,2.12,0.465
204,'            ',138.0,1,1,1,1,1.46422433,2.30426151,2.12,0.465,2.12,0.465
205,'            ',138.0,1,1,1,1,1.46490501,2.31349667,2.12,0.465,2.12,0.465
...
0 / END OF BUS DATA BEGIN LOAD DATA
1,'1',1,1,1,11.72,4.934,0.0,0.0,0.0,0.0,1,1,0
2,'1',1,1,1,6.756,1.502,0.0,0.0,0.0,0.0,1,1,0
2,'2',1,1,1,0.084,0.389,0.0,0.0,0.0,0.0,1,1,0
2,'99',0,1,1,16.545,15.406,0.0,0.0,0.0,0.0,1,1,0
3,'1',1,1,1,6.725,1.906,0.0,0.0,0.0,0.0,1,1,0
5,'1',1,1,1,0.374,-0.968,0.0,0.0,0.0,0.0,1,1,0
7,'1',1,1,1,5.185,2.966,0.0,0.0,0.0,0.0,1,1,0
8,'1',1,1,1,1.617,0.275,0.0,0.0,0.0,0.0,1,1,0
9,'1',1,1,1,9.989,1.96,0.0,0.0,0.0,0.0,1,1,0
12,'1',1,1,1,7.427,4.88,0.0,0.0,0.0,0.0,1,1,0
13,'1',1,1,1,6.161,1.693,0.0,0.0,0.0,0.0,1,1,0
15,'1',1,1,1,9.905,2.554,0.0,0.0,0.0,0.0,1,1,0
20,'1',1,1,1,9.692,-3.081,0.0,0.0,0.0,0.0,1,1,0
21,'1',1,1,1,6.016,-0.808,0.0,0.0,0.0,0.0,1,1,0
28,'1',1,1,1,18.461,2.196,0.0,0.0,0.0,0.0,1,1,0
32,'1',1,1,1,5.315,0.892,0.0,0.0,0.0,0.0,1,1,0
34,'1',1,1,1,7.442,6.115,0.0,0.0,0.0,0.0,1,1,0
36,'99',0,1,1,108.412,-4.52,0.0,0.0,0.0,0.0,1,1,0
37,'1',0,1,1,1.0,1.0,0.0,0.0,0.0,0.0,1,1,0
39,'1',1,1,1,13.222,5.322,0.0,0.0,0.0,0.0,1,1,0
43,'1',1,1,1,1.525,0.343,0.0,0.0,0.0,0.0,1,1,0
44,'1',1,1,1,6.725,1.708,0.0,0.0,0.0,0.0,1,1,0
47,'1',1,1,1,8.014,-1.136,0.0,0.0,0.0,0.0,1,1,0
49,'1',1,1,1,7.442,6.115,0.0,0.0,0.0,0.0,1,1,0
51,'1',1,1,1,3.813,2.288,0.0,0.0,0.0,0.0,1,1,0
53,'1',1,1,1,5.322,0.412,0.0,0.0,0.0,0.0,1,1,0
54,'1',1,1,1,10.881,-0.824,0.0,0.0,0.0,0.0,1,1,0
56,'1',1,1,1,4.773,4.415,0.0,0.0,0.0,0.0,1,1,0
57,'1',1,1,1,5.467,-0.206,0.0,0.0,0.0,0.0,1,1,0
58,'99',0,1,1,10.106,10.951,0.0,0.0,0.0,0.0,1,1,0
59,'1',1,1,1,6.794,4.011,0.0,0.0,0.0,0.0,1,1,0
61,'1',1,1,1,2.859,-0.351,0.0,0.0,0.0,0.0,1,1,0
62,'1',1,1,1,5.94,-0.206,0.0,0.0,0.0,0.0,1,1,0
63,'1',1,1,1,22.51,0.069,0.0,0.0,0.0,0.0,1,1,0
64,'1',1,1,1,6.459,5.727,0.0,0.0,0.0,0.0,1,1,0
65,'1',1,1,1,0.694,0.45,0.0,0.0,0.0,0.0,1,1,0
68,'1',1,1,1,5.361,-0.198,0.0,0.0,0.0,0.0,1,1,0
70,'1',1,1,1,4.224,-2.646,0.0,0.0,0.0,0.0,1,1,0
71,'1',1,1,1,4.285,-1.334,0.0,0.0,0.0,0.0,1,1,0
71,'2',1,1,1,4.285,-1.334,0.0,0.0,0.0,0.0,1,1,0
72,'1',1,1,1,4.079,0.267,0.0,0.0,0.0,0.0,1,1,0
74,'1',0,1,1,1.0,1.0,0.0,0.0,0.0,0.0,1,1,0
74,'2',1,1,1,5.315,3.363,0.0,0.0,0.0,0.0,1,1,0
75,'1',1,1,1,2.272,-1.845,0.0,0.0,0.0,0.0,1,1,0
76,'1',1,1,1,4.072,-0.206,0.0,0.0,0.0,0.0,1,1,0
77,'1',1,1,1,17.866,0.32,0.0,0.0,0.0,0.0,1,1,0
78,'1',1,1,1,10.637,2.623,0.0,0.0,0.0,0.0,1,1,0
80,'1',1,1,1,0.686,0.412,0.0,0.0,0.0,0.0,1,1,0
81,'99',0,1,1,30.844,22.078,0.0,0.0,0.0,0.0,1,1,0
82,'1',1,1,1,5.322,0.412,0.0,0.0,0.0,0.0,1,1,0
84,'1',1,1,1,6.603,0.419,0.0,0.0,0.0,0.0,1,1,0
85,'1',1,1,1,10.424,2.92,0.0,0.0,0.0,0.0,1,1,0
88,'1',0,1,1,1.0,1.0,0.0,0.0,0.0,0.0,1,1,0
89,'1',1,1,1,14.907,0.015,0.0,0.0,0.0,0.0,1,1,0
92,'1',1,1,1,3.454,-0.206,0.0,0.0,0.0,0.0,1,1,0
94,'1',1,1,1,1.655,1.914,0.0,0.0,0.0,0.0,1,1,0
96,'99',1,1,1,16.897,30.009,0.0,0.0,0.0,0.0,1,1,0
97,'99',1,1,1,14.359,19.296,0.0,0.0,0.0,0.0,1,1,0
99,'1',1,1,1,5.338,13.725,0.0,0.0,0.0,0.0,1,1,0
100,'1',1,1,1,6.1,16.013,0.0,0.0,0.0,0.0,1,1,0
101,'99',1,1,1,78.359,14.935,0.0,0.0,0.0,0.0,1,1,0
102,'99',0,1,1,1.156,-45.892,0.0,0.0,0.0,0.0,1,1,0
105,'1',1,1,1,3.264,1.205,0.0,0.0,0.0,0.0,1,1,0
106,'1',1,1,1,4.179,1.754,0.0,0.0,0.0,0.0,1,1,0
108,'1',1,1,1,5.871,1.952,0.0,0.0,0.0,0.0,1,1,0
108,'99',1,1,1,1.574,-12.315,0.0,0.0,0.0,0.0,1,1,0
109,'1',1,1,1,6.276,1.647,0.0,0.0,0.0,0.0,1,1,0
110,'1',1,1,1,1.426,0.61,0.0,0.0,0.0,0.0,1,1,0
111,'1',1,1,1,2.547,1.083,0.0,0.0,0.0,0.0,1,1,0
112,'1',1,1,1,10.309,3.835,0.0,0.0,0.0,0.0,1,1,0
115,'1',1,1,1,3.668,1.319,0.0,0.0,0.0,0.0,1,1,0
116,'1',1,1,1,18.003,16.089,0.0,0.0,0.0,0.0,1,1,0
118,'1',1,1,1,4.163,1.761,0.0,0.0,0.0,0.0,1,1,0
120,'1',1,1,1,7.335,2.394,0.0,0.0,0.0,0.0,1,1,0
128,'1',1,1,1,0.763,0.29,0.0,0.0,0.0,0.0,1,1,0
129,'1',1,1,1,3.424,2.371,0.0,0.0,0.0,0.0,1,1,0
131,'1',1,1,1,61.002,29.738,0.0,0.0,0.0,0.0,1,1,0
132,'1',1,1,1,3.988,1.38,0.0,0.0,0.0,0.0,1,1,0
133,'1',1,1,1,1.464,0.458,0.0,0.0,0.0,0.0,1,1,0
134,'1',1,1,1,40.414,19.078,0.0,0.0,0.0,0.0,1,1,0
135,'1',1,1,1,4.575,1.624,0.0,0.0,0.0,0.0,1,1,0
136,'1',1,1,1,2.12,0.686,0.0,0.0,0.0,0.0,1,1,0
137,'1',1,1,1,8.06,2.676,0.0,0.0,0.0,0.0,1,1,0
137,'99',0,1,1,28.183,-12.764,0.0,0.0,0.0,0.0,1,1,0
138,'1',1,1,1,0.328,0.076,0.0,0.0,0.0,0.0,1,1,0
140,'1',1,1,1,2.12,1.266,0.0,0.0,0.0,0.0,1,1,0
141,'1',1,1,1,4.445,0.511,0.0,0.0,0.0,0.0,1,1,0
142,'1',1,1,1,6.192,2.105,0.0,0.0,0.0,0.0,1,1,0
143,'99',0,1,1,0.426,1.249,0.0,0.0,0.0,0.0,1,1,0
145,'99',0,1,1,53.244,16.969,0.0,0.0,0.0,0.0,1,1,0
146,'1',1,1,1,1.22,0.305,0.0,0.0,0.0,0.0,1,1,0
147,'1',1,1,1,0.816,0.374,0.0,0.0,0.0,0.0,1,1,0
148,'1',1,1,1,4.979,2.127,0.0,0.0,0.0,0.0,1,1,0
149,'99',0,1,1,9.227,-8.412,0.0,0.0,0.0,0.0,1,1,0
150,'1',1,1,1,3.668,1.151,0.0,0.0,0.0,0.0,1,1,0
151,'1',1,1,1,14.419,23.036,0.0,0.0,0.0,0.0,1,1,0
152,'1',1,1,1,5.338,10.675,0.0,0.0,0.0,0.0,1,1,0
153,'1',1,1,1,6.931,2.333,0.0,0.0,0.0,0.0,1,1,0
157,'1',1,1,1,2.242,0.953,0.0,0.0,0.0,0.0,1,1,0
159,'1',1,1,1,11.095,0.419,0.0,0.0,0.0,0.0,1,1,0
160,'1',1,1,1,8.563,2.028,0.0,0.0,0.0,0.0,1,1,0
161,'1',1,1,1,4.865,2.112,0.0,0.0,0.0,0.0,1,1,0
162,'1',1,1,1,6.337,2.806,0.0,0.0,0.0,0.0,1,1,0
163,'1',1,1,1,0.648,0.061,0.0,0.0,0.0,0.0,1,1,0
165,'1',1,1,1,0.503,0.297,0.0,0.0,0.0,0.0,1,1,0
166,'1',1,1,1,0.404,0.236,0.0,0.0,0.0,0.0,1,1,0
168,'1',1,1,1,7.907,2.638,0.0,0.0,0.0,0.0,1,1,0
169,'1',1,1,1,1.96,0.709,0.0,0.0,0.0,0.0,1,1,0
171,'1',1,1,1,4.079,0.58,0.0,0.0,0.0,0.0,1,1,0
173,'1',1,1,1,5.536,2.066,0.0,0.0,0.0,0.0,1,1,0
175,'1',1,1,1,2.28,0.869,0.0,0.0,0.0,0.0,1,1,0
176,'1',1,1,1,4.895,1.739,0.0,0.0,0.0,0.0,1,1,0
179,'1',1,1,1,4.567,1.571,0.0,0.0,0.0,0.0,1,1,0
181,'1',1,1,1,3.462,1.441,0.0,0.0,0.0,0.0,1,1,0
182,'1',1,1,1,3.264,1.365,0.0,0.0,0.0,0.0,1,1,0
184,'1',1,1,1,2.776,0.938,0.0,0.0,0.0,0.0,1,1,0
185,'1',1,1,1,3.256,1.182,0.0,0.0,0.0,0.0,1,1,0
188,'1',1,1,1,0.572,0.282,0.0,0.0,0.0,0.0,1,1,0
189,'1',1,1,1,0.976,0.442,0.0,0.0,0.0,0.0,1,1,0
191,'1',1,1,1,3.508,1.319,0.0,0.0,0.0,0.0,1,1,0
193,'1',1,1,1,3.508,1.243,0.0,0.0,0.0,0.0,1,1,0
194,'1',1,1,1,9.295,3.02,0.0,0.0,0.0,0.0,1,1,0
195,'99',0,1,1,18.155,5.789,0.0,0.0,0.0,0.0,1,1,0
198,'1',1,1,1,2.936,1.052,0.0,0.0,0.0,0.0,1,1,0
200,'1',1,1,1,4.049,1.129,0.0,0.0,0.0,0.0,1,1,0
201,'1',1,1,1,5.658,1.533,0.0,0.0,0.0,0.0,1,1,0
202,'1',1,1,1,1.639,0.427,0.0,0.0,0.0,0.0,1,1,0
204,'1',1,1,1,9.013,3.553,0.0,0.0,0.0,0.0,1,1,0
205,'1',1,1,1,8.548,3.691,0.0,0.0,0.0,0.0,1,1,0
206,'1',1,1,1,3.149,1.296,0.0,0.0,0.0,0.0,1,1,0
207,'1',1,1,1,1.96,0.793,0.0,0.0,0.0,0.0,1,1,0
208,'99',1,1,1,26.206,-1.287,0.0,0.0,0.0,0.0,1,1,0
209,'1',1,1,1,0.404,0.229,0.0,0.0,0.0,0.0,1,1,0
213,'99',1,1,1,36.422,12.675,0.0,0.0,0.0,0.0,1,1,0
214,'99',1,1,1,208.195,16.902,0.0,0.0,0.0,0.0,1,1,0
216,'99',1,1,1,59.017,34.352,0.0,0.0,0.0,0.0,1,1,0
220,'99',0,1,1,659.876,-1.015,0.0,0.0,0.0,0.0,1,1,0
221,'1',1,1,1,24.523,39.704,0.0,0.0,0.0,0.0,1,1,0
222,'1',1,1,1,35.35,70.205,0.0,0.0,0.0,0.0,1,1,0
223,'1',1,1,1,45.751,91.502,0.0,0.0,0.0,0.0,1,1,0
224,'1',1,1,1,45.751,91.502,0.0,0.0,0.0,0.0,1,1,0
224,'99',1,1,1,766.013,125.622,0.0,0.0,0.0,0.0,1,1,0
225,'99',1,1,1,285.215,64.499,0.0,0.0,0.0,0.0,1,1,0
226,'99',1,1,1,54.371,44.802,0.0,0.0,0.0,0.0,1,1,0
227,'99',1,1,1,51.899,-41.437,0.0,0.0,0.0,0.0,1,1,0
228,'1',1,1,1,29.586,-2.059,0.0,0.0,0.0,0.0,1,1,0
229,'99',1,1,1,10.71,19.472,0.0,0.0,0.0,0.0,1,1,0
231,'99',1,1,1,114.447,42.398,0.0,0.0,0.0,0.0,1,1,0
234,'99',1,1,1,5.669,29.281,0.0,0.0,0.0,0.0,1,1,0
235,'99',1,1,1,37.765,30.812,0.0,0.0,0.0,0.0,1,1,0
236,'1',1,1,1,5.871,15.25,0.0,0.0,0.0,0.0,1,1,0
236,'99',1,1,1,236.981,-9.755,0.0,0.0,0.0,0.0,1,1,0
237,'1',1,1,1,2.936,0.763,0.0,0.0,0.0,0.0,1,1,0
238,'1',1,1,1,1.731,0.846,0.0,0.0,0.0,0.0,1,1,0
239,'1',1,1,1,1.205,0.305,0.0,0.0,0.0,0.0,1,1,0
240,'1',1,1,1,3.386,0.839,0.0,0.0,0.0,0.0,1,1,0
241,'1',1,1,1,3.538,0.305,0.0,0.0,0.0,0.0,1,1,0
241,'99',1,1,1,2.715,-0.212,0.0,0.0,0.0,0.0,1,1,0
242,'1',1,1,1,10.591,5.917,0.0,0.0,0.0,0.0,1,1,0
243,'1',1,1,1,14.884,8.563,0.0,0.0,0.0,0.0,1,1,0
245,'99',1,1,1,60.981,7.005,0.0,0.0,0.0,0.0,1,1,0
246,'1',1,1,1,15.25,30.501,0.0,0.0,0.0,0.0,1,1,0
247,'1',1,1,1,15.578,15.723,0.0,0.0,0.0,0.0,1,1,0
248,'1',1,1,1,27.832,9.158,0.0,0.0,0.0,0.0,1,1,0
249,'99',1,1,1,63.346,8.26,0.0,0.0,0.0,0.0,1,1,0
250,'1',1,1,1,0.114,0.511,0.0,0.0,0.0,0.0,1,1,0
251,'1',1,1,1,14.122,9.341,0.0,0.0,0.0,0.0,1,1,0
252,'1',1,1,1,10.744,4.674,0.0,0.0,0.0,0.0,1,1,0
253,'1',1,1,1,6.619,0.763,0.0,0.0,0.0,0.0,1,1,0
253,'99',1,1,1,6.032,-3.983,0.0,0.0,0.0,0.0,1,1,0
254,'99',1,1,1,53.587,15.624,0.0,0.0,0.0,0.0,1,1,0
256,'1',1,1,1,4.285,0.915,0.0,0.0,0.0,0.0,1,1,0
257,'1',1,1,1,4.285,0.991,0.0,0.0,0.0,0.0,1,1,0
257,'99',1,1,1,17.013,10.894,0.0,0.0,0.0,0.0,1,1,0
258,'1',1,1,1,2.707,0.229,0.0,0.0,0.0,0.0,1,1,0
259,'1',1,1,1,1.807,0.458,0.0,0.0,0.0,0.0,1,1,0
260,'1',1,1,1,2.707,0.458,0.0,0.0,0.0,0.0,1,1,0
261,'1',1,1,1,1.578,0.305,0.0,0.0,0.0,0.0,1,1,0
262,'99',1,1,1,1.956,-6.471,0.0,0.0,0.0,0.0,1,1,0
263,'1',1,1,1,0.9,0.229,0.0,0.0,0.0,0.0,1,1,0
264,'1',1,1,1,0.305,0.076,0.0,0.0,0.0,0.0,1,1,0
266,'1',1,1,1,2.265,2.516,0.0,0.0,0.0,0.0,1,1,0
267,'1',1,1,1,11.201,5.33,0.0,0.0,0.0,0.0,1,1,0
269,'1',0,1,1,1.0,1.0,0.0,0.0,0.0,0.0,1,1,0
270,'1',1,1,1,4.873,2.303,0.0,0.0,0.0,0.0,1,1,0
272,'1',1,1,1,23.386,4.43,0.0,0.0,0.0,0.0,1,1,0
273,'1',1,1,1,2.867,2.105,0.0,0.0,0.0,0.0,1,1,0
274,'1',1,1,1,11.842,3.18,0.0,0.0,0.0,0.0,1,1,0
277,'99',1,1,1,123.11,60.264,0.0,0.0,0.0,0.0,1,1,0
279,'1',1,1,1,5.635,2.349,0.0,0.0,0.0,0.0,1,1,0
281,'1',1,1,1,1.556,2.303,0.0,0.0,0.0,0.0,1,1,0
284,'1',1,1,1,4.537,1.472,0.0,0.0,0.0,0.0,1,1,0
284,'99',1,1,1,5.062,4.219,0.0,0.0,0.0,0.0,1,1,0
285,'1',1,1,1,1.639,1.517,0.0,0.0,0.0,0.0,1,1,0
286,'1',1,1,1,1.083,2.158,0.0,0.0,0.0,0.0,1,1,0
287,'1',1,1,1,1.037,2.021,0.0,0.0,0.0,0.0,1,1,0
289,'1',1,1,1,4.59,2.471,0.0,0.0,0.0,0.0,1,1,0
289,'99',1,1,1,1.623,-2.128,0.0,0.0,0.0,0.0,1,1,0
290,'1',1,1,1,2.12,2.105,0.0,0.0,0.0,0.0,1,1,0
291,'1',1,1,1,0.961,1.685,0.0,0.0,0.0,0.0,1,1,0
...
0 / END OF LOAD DATA BEGIN FIXED SHUNT DATA
2,'1',1,0.0,15.498
23,'1',1,0.0,-120.31
36,'1',1,0.0,-4.438
58,'1',1,0.0,10.592
81,'1',1,0.0,21.502
98,'1',1,0.0,-24.285
100,'1',1,0.0,4.571
102,'1',1,0.0,-43.607
133,'1',1,0.0,-1.321
137,'1',1,0.0,-13.204
143,'1',1,0.0,1.197
145,'1',1,0.0,16.36
149,'1',1,0.0,-8.091
156,'1',1,0.0,40.892
195,'1',1,0.0,5.562
220,'1',1,0.0,-1.094
304,'1',1,0.0,2.218
348,'1',1,0.0,5.534
357,'1',1,0.0,-30.025
363,'1',1,0.0,24.399
364,'1',1,0.0,-71.188
367,'1',1,0.0,60.608
376,'1',1,0.0,-9.534
380,'1',1,0.0,11.017
386,'1',1,0.0,-5.842
390,'1',1,0.0,12.518
428,'1',1,0.0,-7.317
442,'1',1,0.0,-7.663
443,'1',1,0.0,12.284
444,'1',1,0.0,19.281
460,'1',1,0.0,32.216
525,'1',1,0.0,100.748
576,'1',1,0.0,-63.285
591,'1',1,0.0,22.609
595,'1',1,0.0,6.261
623,'1',1,0.0,-2.498
624,'1',1,0.0,6.887
631,'1',1,0.0,30.406
639,'1',1,0.0,-66.624
640,'1',1,0.0,-75.05
642,'1',1,0.0,88.396
653,'1',1,0.0,26.664
684,'1',1,0.0,0.059
696,'1',1,0.0,-1.903
697,'1',1,0.0,-37.362
743,'1',1,0.0,-1.15
748,'1',1,0.0,-19.101
791,'1',1,0.0,0.336
794,'1',1,0.0,-2.22
0 / END OF FIXED SHUNT DATA BEGIN GENERATOR DATA
6,'1',0.0,0.0,33.333,-33.333,1.29234878,0,100.0,0.0,1.0,0.0,0.0,1.0,0,100.0,63.0,28.5,1,1.0,0,1.0,0,1.0,0,1.0,0,1.0
23,'98',130.56142676,-52.90875397,183.0,-183.0,1.40645803,0,100.0,0.0,1.0,0.0,0.0,1.0,1,100.0,526.316,2.0,1,1.0,0,1.0,0,1.0,0,1.0,0,1.0
25,'1',0.0,0.0,22.5,-22.5,1.55081853,0,100.0,0.0,1.0,0.0,0.0,1.0,0,100.0,280.0,2.0,1,1.0,0,1.0,0,1.0,0,1.0,0,1.0
25,'2',0.0,0.0,22.5,-22.5,1.55081853,0,100.0,0.0,1.0,0.0,0.0,1.0,0,100.0,60.43,14.25,1,1.0,0,1.0,0,1.0,0,1.0,0,1.0
31,'99',68.26980525,-68.79657539,160.0,-160.0,1.58881192,0,100.0,0.0,1.0,0.0,0.0,1.0,1,100.0,136.038,34.685,1,1.0,0,1.0,0,1.0,0,1.0,0,1.0
33,'1',0.0,0.0,19.29,-19.29,1.57844264,0,100.0,0.0,1.0,0.0,0.0,1.0,0,100.0,46.2,11.4,1,1.0,0,1.0,0,1.0,0,1.0,0,1.0
35,'1',0.0,0.0,33.127,-33.127,1.58713684,0,100.0,0.0,1.0,0.0,0.0,1.0,0,100.0,288.0,2.0,1,1.0,0,1.0,0,1.0,0,1.0,0,1.0
35,'2',0.0,0.0,23.05,-23.05,1.58713684,0,100.0,0.0,1.0,0.0,0.0,1.0,0,100.0,300.0,2.0,1,1.0,0,1.0,0,1.0,0,1.0,0,1.0
35,'3',0.0,0.0,16.237,-16.237,1.58713684,0,100.0,0.0,1.0,0.0,0.0,1.0,0,100.0,40.14,25.14,1,1.0,0,1.0,0,1.0,0,1.0,0,1.0
37,'L1',6.21499285,2.47098519,2.472,2.47,1.56150307,0,100.0,0.0,1.0,0.0,0.0,1.0,1,100.0,6.216,6.214,1,1.0,0,1.0,0,1.0,0,1.0,0,1.0
43,'99',108.33613608,-38.34331452,160.0,-160.0,1.38781147,0,100.0,0.0,1.0,0.0,0.0,1.0,1,100.0,301.053,1.129,1,1.0,0,1.0,0,1.0,0,1.0,0,1.0
45,'1',0.0,0.0,67.75,-67.75,1.57844264,0,100.0,0.0,1.0,0.0,0.0,1.0,0,100.0,173.25,50.54,1,1.0,0,1.0,0,1.0,0,1.0,0,1.0
46,'99',28.76585925,8.13631243,160.0,-160.0,1.47660506,0,100.0,0.0,1.0,0.0,0.0,1.0,1,100.0,55.716,11.516,1,1.0,0,1.0,0,1.0,0,1.0,0,1.0
47,'99',35.0607099,-30.4125785,160.0,-160.0,1.38158385,0,100.0,0.0,1.0,0.0,0.0,1.0,1,100.0,68.734,15.271,1,1.0,0,1.0,0,1.0,0,1.0,0,1.0
52,'99',56.82226547,10.75851959,160.0,-160.0,1.52473088,0,100.0,0.0,1.0,0.0,0.0,1.0,1,100.0,111.717,27.67,1,1.0,0,1.0,0,1.0,0,1.0,0,1.0
55,'99',68.37264564,29.88174587,160.0,-160.0,1.56725721,0,100.0,0.0,1.0,0.0,0.0,1.0,1,100.0,136.0,34.674,1,1.0,0,1.0,0,1.0,0,1.0,0,1.0
59,'1',107.16688604,-30.52476971,66.11,-103.578,1.40673751,0,100.0,0.0,1.0,0.0,0.0,1.0,1,100.0,297.895,3.833,1,1.0,0,1.0,0,1.0,0,1.0,0,1.0
65,'1',91.3611594,39.4067193,92.232,-2.97,1.41235711,0,100.0,0.0,1.0,0.0,0.0,1.0,1,100.0,265.263,7.393,1,1.0,0,1.0,0,1.0,0,1.0,0,1.0
65,'2',0.0,0.0,9.267,-9.267,1.41235711,0,100.0,0.0,1.0,0.0,0.0,1.0,0,100.0,25.2,4.75,1,1.0,0,1.0,0,1.0,0,1.0,0,1.0
71,'99',34.76655666,-38.25351566,160.0,-160.0,1.37310527,0,100.0,0.0,1.0,0.0,0.0,1.0,1,100.0,67.904,15.032,1,1.0,0,1.0,0,1.0,0,1.0,0,1.0
74,'L1',0.25198506,-0.26700124,-0.266,-0.268,1.48538256,0,100.0,0.0,1.0,0.0,0.0,1.0,1,100.0,0.253,0.251,1,1.0,0,1.0,0,1.0,0,1.0,0,1.0
80,'1',0.0,0.0,9.267,-9.267,1.4020867,0,100.0,0.0,1.0,0.0,0.0,1.0,0,100.0,26.25,4.75,1,1.0,0,1.0,0,1.0,0,1.0,0,1.0
80,'2',0.0,0.0,9.267,-9.267,1.4020867,0,100.0,0.0,1.0,0.0,0.0,1.0,0,100.0,25.2,2.0,1,1.0,0,1.0,0,1.0,0,1.0,0,1.0
86,'99',42.81843231,-66.43958646,160.0,-160.0,1.57201349,0,100.0,0.0,1.0,0.0,0.0,1.0,1,100.0,83.388,19.498,1,1.0,0,1.0,0,1.0,0,1.0,0,1.0
87,'1',0.0,0.0,95.526,-95.526,1.52463721,0,100.0,0.0,1.0,0.0,0.0,1.0,0,100.0,274.737,2.0,1,1.0,0,1.0,0,1.0,0,1.0,0,1.0
88,'L1',0.19798645,-0.00800124,-0.007,-0.009,1.38062406,0,100.0,0.0,1.0,0.0,0.0,1.0,1,100.0,0.199,0.197,1,1.0,0,1.0,0,1.0,0,1.0,0,1.0
90,'99',31.33498298,11.70543755,160.0,-160.0,1.47902384,0,100.0,0.0,1.0,0.0,0.0,1.0,1,100.0,59.599,12.637,1,1.0,0,1.0,0,1.0,0,1.0,0,1.0
93,'99',90.07002895,-51.49373358,160.0,-160.0,1.39497085,0,100.0,0.0,1.0,0.0,0.0,1.0,1,100.0,265.263,2.965,1,1.0,0,1.0,0,1.0,0,1.0,0,1.0
98,'99',0.0,0.0,33.333,-33.333,1.59829668,0,100.0,0.0,1.0,0.0,0.0,1.0,0,100.0,65.268,50.268,1,1.0,0,1.0,0,1.0,0,1.0,0,1.0
99,'1',0.0,0.0,52.613,-1.0,1.59386343,0,100.0,0.0,1.0,0.0,0.0,1.0,0,100.0,151.316,70.0,1,1.0,0,1.0,0,1.0,0,1.0,0,1.0
100,'1',0.0,0.0,52.613,-1.0,1.59399308,0,100.0,0.0,1.0,0.0,0.0,1.0,0,100.0,151.316,70.0,1,1.0,0,1.0,0,1.0,0,1.0,0,1.0
100,'99',0.0,0.0,33.333,-33.333,1.59399308,0,100.0,0.0,1.0,0.0,0.0,1.0,0,100.0,28.104,13.104,1,1.0,0,1.0,0,1.0,0,1.0,0,1.0
105,'97',57.32629914,16.11984139,43.92,-43.92,1.53282737,0,100.0,0.0,1.0,0.0,0.0,1.0,1,100.0,126.316,5.0,1,1.0,0,1.0,0,1.0,0,1.0,0,1.0
116,'1',0.0,0.0,50.325,-40.0,1.57746023,0,100.0,0.0,1.0,0.0,0.0,1.0,0,100.0,144.737,32.0,1,1.0,0,1.0,0,1.0,0,1.0,0,1.0
117,'1',0.0,0.0,37.667,-37.667,1.57723768,0,100.0,0.0,1.0,0.0,0.0,1.0,0,100.0,113.0,32.0,1,1.0,0,1.0,0,1.0,0,1.0,0,1.0
121,'1',0.0,0.0,45.0,-45.0,1.58025795,0,100.0,0.0,1.0,0.0,0.0,1.0,0,100.0,135.0,35.0,1,1.0,0,1.0,0,1.0,0,1.0,0,1.0
131,'1',0.0,0.0,8.333,-8.333,1.52249972,0,100.0,0.0,1.0,0.0,0.0,1.0,0,100.0,25.0,10.0,1,1.0,0,1.0,0,1.0,0,1.0,0,1.0
131,'2',0.0,0.0,8.333,-8.333,1.52249972,0,100.0,0.0,1.0,0.0,0.0,1.0,0,100.0,25.0,10.0,1,1.0,0,1.0,0,1.0,0,1.0,0,1.0
131,'3',0.0,0.0,11.438,-11.438,1.52249972,0,100.0,0.0,1.0,0.0,0.0,1.0,0,100.0,32.895,10.0,1,1.0,0,1.0,0,1.0,0,1.0,0,1.0
131,'4',0.0,0.0,9.15,-9.15,1.52249972,0,100.0,0.0,1.0,0.0,0.0,1.0,0,100.0,26.316,10.0,1,1.0,0,1.0,0,1.0,0,1.0,0,1.0
133,'99',0.0,0.0,33.333,-33.333,1.49480059,0,100.0,0.0,1.0,0.0,0.0,1.0,0,100.0,295.0,2.396,1,1.0,0,1.0,0,1.0,0,1.0,0,1.0
134,'1',27.40904346,8.61929384,16.667,-16.667,1.59103085,0,100.0,0.0,1.0,0.0,0.0,1.0,1,100.0,52.632,5.0,1,1.0,0,1.0,0,1.0,0,1.0,0,1.0
151,'1',0.0,0.0,43.92,-1.0,1.49233565,0,100.0,0.0,1.0,0.0,0.0,1.0,0,100.0,126.316,70.0,1,1.0,0,1.0,0,1.0,0,1.0,0,1.0
151,'2',76.87578648,26.19736662,43.92,-1.0,1.49233565,0,100.0,0.0,1.0,0.0,0.0,1.0,1,100.0,126.316,58.333,1,1.0,0,1.0,0,1.0,0,1.0,0,1.0
151,'97',57.44886572,16.33635892,43.92,-43.92,1.49233565,0,100.0,0.0,1.0,0.0,0.0,1.0,1,100.0,126.316,5.0,1,1.0,0,1.0,0,1.0,0,1.0,0,1.0
152,'1',101.5296335,37.30355262,54.897,-1.0,1.58284858,0,100.0,0.0,1.0,0.0,0.0,1.0,1,100.0,157.887,79.0,1,1.0,0,1.0,0,1.0,0,1.0,0,1.0
152,'2',0.0,0.0,36.667,-36.667,1.58284858,0,100.0,0.0,1.0,0.0,0.0,1.0,0,100.0,110.0,79.0,1,1.0,0,1.0,0,1.0,0,1.0,0,1.0
156,'99',0.0,0.0,33.333,-33.333,1.46115098,0,100.0,0.0,1.0,0.0,0.0,1.0,0,100.0,62.466,47.466,1,1.0,0,1.0,0,1.0,0,1.0,0,1.0
159,'99',98.42056361,-41.92767077,160.0,-160.0,1.47425792,0,100.0,0.0,1.0,0.0,0.0,1.0,1,100.0,308.421,0.037,1,1.0,0,1.0,0,1.0,0,1.0,0,1.0
179,'97',58.66238406,16.53026637,43.92,-43.92,1.51810975,0,100.0,0.0,1.0,0.0,0.0,1.0,1,100.0,126.316,10.0,1,1.0,0,1.0,0,1.0,0,1.0,0,1.0
190,'99',43.57571012,95.55977416,160.0,-160.0,1.52653403,0,100.0,0.0,1.0,0.0,0.0,1.0,1,100.0,83.856,18.133,1,1.0,0,1.0,0,1.0,0,1.0,0,1.0
221,'1',0.0,0.0,123.333,-123.333,1.71893512,0,100.0,0.0,1.0,0.0,0.0,1.0,0,100.0,370.0,240.0,1,1.0,0,1.0,0,1.0,0,1.0,0,1.0
221,'2',0.0,0.0,123.333,-123.333,1.71893512,0,100.0,0.0,1.0,0.0,0.0,1.0,0,100.0,370.0,240.0,1,1.0,0,1.0,0,1.0,0,1.0,0,1.0
221,'3',0.0,0.0,157.837,-23.75,1.71893512,0,100.0,0.0,1.0,0.0,0.0,1.0,0,100.0,453.947,240.0,1,1.0,0,1.0,0,1.0,0,1.0,0,1.0
222,'1',298.13881303,5.22054158,169.275,-19.0,1.8111068,0,100.0,0.0,1.0,0.0,0.0,1.0,1,100.0,486.842,240.0,1,1.0,0,1.0,0,1.0,0,1.0,0,1.0
222,'2',0.0,0.0,135.42,-19.0,1.8111068,0,100.0,0.0,1.0,0.0,0.0,1.0,0,100.0,389.474,240.0,1,1.0,0,1.0,0,1.0,0,1.0,0,1.0
223,'1',297.55882536,7.96843652,190.0,-19.0,1.6489159,0,100.0,0.0,1.0,0.0,0.0,1.0,1,100.0,1148.453,50.876,1,1.0,0,1.0,0,1.0,0,1.0,0,1.0
223,'2',337.51311409,7.96843652,190.0,-19.0,1.6489159,0,100.0,0.0,1.0,0.0,0.0,1.0,1,100.0,1148.453,50.876,1,1.0,0,1.0,0,1.0,0,1.0,0,1.0
223,'3',337.51311409,7.96843652,190.0,-19.0,1.6489159,0,100.0,0.0,1.0,0.0,0.0,1.0,1,100.0,1148.453,50.876,1,1.0,0,1.0,0,1.0,0,1.0,0,1.0
224,'1',0.0,0.0,169.275,-19.0,1.64784853,0,100.0,0.0,1.0,0.0,0.0,1.0,0,100.0,486.842,240.0,1,1.0,0,1.0,0,1.0,0,1.0,0,1.0
224,'2',284.32835621,7.19900999,155.55,-19.0,1.64784853,0,100.0,0.0,1.0,0.0,0.0,1.0,1,100.0,447.368,240.0,1,1.0,0,1.0,0,1.0,0,1.0,0,1.0
224,'3',284.32835621,7.19900999,155.55,-19.0,1.64784853,0,100.0,0.0,1.0,0.0,0.0,1.0,1,100.0,447.368,240.0,1,1.0,0,1.0,0,1.0,0,1.0,0,1.0
233,'99',89.53129491,-134.35901615,160.0,-160.0,1.62113951,0,100.0,0.0,1.0,0.0,0.0,1.0,1,100.0,186.779,43.1,1,1.0,0,1.0,0,1.0,0,1.0,0,1.0
236,'1',0.0,0.0,50.325,-15.0,1.71310365,0,100.0,0.0,1.0,0.0,0.0,1.0,0,100.0,144.737,91.667,1,1.0,0,1.0,0,1.0,0,1.0,0,1.0
236,'98',80.37333074,-160.19831036,183.0,-183.0,1.71310365,0,100.0,0.0,1.0,0.0,0.0,1.0,1,100.0,526.316,2.0,1,1.0,0,1.0,0,1.0,0,1.0,0,1.0
246,'1',289.13434542,2.49911572,160.125,-19.0,1.96016464,0,100.0,0.0,1.0,0.0,0.0,1.0,1,100.0,460.526,240.0,1,1.0,0,1.0,0,1.0,0,1.0,0,1.0
250,'1',0.0,0.0,10.98,-10.98,1.95225728,0,100.0,0.0,1.0,0.0,0.0,1.0,0,100.0,31.579,2.0,1,1.0,0,1.0,0,1.0,0,1.0,0,1.0
256,'1',101.04770744,-66.71687608,92.964,-92.964,1.70103702,0,100.0,0.0,1.0,0.0,0.0,1.0,1,100.0,267.368,2.0,1,1.0,0,1.0,0,1.0,0,1.0,0,1.0
267,'99',119.94073553,-23.39543882,160.0,-160.0,1.7361378,0,100.0,0.0,1.0,0.0,0.0,1.0,1,100.0,309.474,2.626,1,1.0,0,1.0,0,1.0,0,1.0,0,1.0
268,'99',203.50804369,108.78210246,160.0,-160.0,1.47480754,0,100.0,0.0,1.0,0.0,0.0,1.0,1,100.0,422.316,97.451,1,1.0,0,1.0,0,1.0,0,1.0,0,1.0
269,'L1',6.54199636,-1.15900362,-1.158,-1.16,1.62650587,0,100.0,0.0,1.0,0.0,0.0,1.0,1,100.0,6.543,6.541,1,1.0,0,1.0,0,1.0,0,1.0,0,1.0
272,'99',42.15478443,100.44158373,160.0,-160.0,1.56457141,0,100.0,0.0,1.0,0.0,0.0,1.0,1,100.0,78.395,15.257,1,1.0,0,1.0,0,1.0,0,1.0,0,1.0
275,'99',36.00158577,49.72254405,160.0,-160.0,1.60305527,0,100.0,0.0,1.0,0.0,0.0,1.0,1,100.0,76.902,1.461,1,1.0,0,1.0,0,1.0,0,1.0,0,1.0
281,'99',107.01581434,10.05050786,160.0,-160.0,1.78370706,0,100.0,0.0,1.0,0.0,0.0,1.0,1,100.0,286.316,1.782,1,1.0,0,1.0,0,1.0,0,1.0,0,1.0
293,'1',0.0,0.0,76.667,-76.667,1.48037906,0,100.0,0.0,1.0,0.0,0.0,1.0,0,100.0,173.25,117.8,1,1.0,0,1.0,0,1.0,0,1.0,0,1.0
296,'1',0.0,0.0,76.667,-76.667,1.48037906,0,100.0,0.0,1.0,0.0,0.0,1.0,0,100.0,173.25,117.8,1,1.0,0,1.0,0,1.0,0,1.0,0,1.0
298,'99',15.67948458,4.86813314,160.0,-160.0,1.78052022,0,100.0,0.0,1.0,0.0,0.0,1.0,1,100.0,29.593,3.981,1,1.0,0,1.0,0,1.0,0,1.0,0,1.0
301,'L2',1.73902102,-1.64699547,-1.646,-1.648,1.61162645,0,100.0,0.0,1.0,0.0,0.0,1.0,1,100.0,1.74,1.738,1,1.0,0,1.0,0,1.0,0,1.0,0,1.0
303,'97',59.22062204,21.5011901,43.92,-43.92,1.30065573,0,100.0,0.0,1.0,0.0,0.0,1.0,1,100.0,126.316,5.0,1,1.0,0,1.0,0,1.0,0,1.0,0,1.0
304,'99',0.0,0.0,33.333,-33.333,1.51564536,0,100.0,0.0,1.0,0.0,0.0,1.0,0,100.0,44.434,29.434,1,1.0,0,1.0,0,1.0,0,1.0,0,1.0
305,'1',0.0,0.0,76.667,-76.667,1.48037906,0,100.0,0.0,1.0,0.0,0.0,1.0,0,100.0,173.25,117.8,1,1.0,0,1.0,0,1.0,0,1.0,0,1.0
307,'99',20.22357441,-23.48479963,160.0,-160.0,1.67771659,0,100.0,0.0,1.0,0.0,0.0,1.0,1,100.0,38.823,6.644,1,1.0,0,1.0,0,1.0,0,1.0,0,1.0
309,'1',0.0,0.0,147.09,-81.3,1.34723031,0,100.0,0.0,1.0,0.0,0.0,1.0,0,100.0,519.615,198.808,1,1.0,0,1.0,0,1.0,0,1.0,0,1.0
326,'1',0.0,0.0,76.667,-76.667,1.48037906,0,100.0,0.0,1.0,0.0,0.0,1.0,0,100.0,173.25,117.8,1,1.0,0,1.0,0,1.0,0,1.0,0,1.0
335,'1',0.0,0.0,76.667,-76.667,1.48037906,0,100.0,0.0,1.0,0.0,0.0,1.0,0,100.0,173.25,117.8,1,1.0,0,1.0,0,1.0,0,1.0,0,1.0
337,'99',86.8611218,19.67582567,160.0,-160.0,1.73524388,0,100.0,0.0,1.0,0.0,0.0,1.0,1,100.0,272.632,1.907,1,1.0,0,1.0,0,1.0,0,1.0,0,1.0
339,'L1',1.73101827,-0.49600143,-0.495,-0.497,1.61383055,0,100.0,0.0,1.0,0.0,0.0,1.0,1,100.0,1.732,1.73,1,1.0,0,1.0,0,1.0,0,1.0,0,1.0
342,'1',0.0,0.0,99.918,-99.918,1.39911253,0,100.0,0.0,1.0,0.0,0.0,1.0,0,100.0,287.368,2.0,1,1.0,0,1.0,0,1.0,0,1.0,0,1.0
345,'99',15.13177197,-30.45512379,160.0,-160.0,1.59303737,0,100.0,0.0,1.0,0.0,0.0,1.0,1,100.0,28.717,3.729,1,1.0,0,1.0,0,1.0,0,1.0,0,1.0
350,'99',68.31117802,-49.33157219,160.0,-160.0,1.62339421,0,100.0,0.0,1.0,0.0,0.0,1.0,1,100.0,134.156,34.142,1,1.0,0,1.0,0,1.0,0,1.0,0,1.0
352,'1',0.0,0.0,302.333,-302.333,1.33167989,0,100.0,0.0,1.0,0.0,0.0,1.0,0,100.0,254.0,2.0,1,1.0,0,1.0,0,1.0,0,1.0,0,1.0
353,'99',61.97870732,-8.79526884,160.0,-160.0,1.63878118,0,100.0,0.0,1.0,0.0,0.0,1.0,1,100.0,124.492,25.542,1,1.0,0,1.0,0,1.0,0,1.0,0,1.0
357,'99',0.0,0.0,33.333,-33.333,1.65463752,0,100.0,0.0,1.0,0.0,0.0,1.0,0,100.0,137.965,122.965,1,1.0,0,1.0,0,1.0,0,1.0,0,1.0
361,'99',232.90048252,-144.49917663,160.0,-160.0,1.72261129,0,100.0,0.0,1.0,0.0,0.0,1.0,1,100.0,526.43,129.035,1,1.0,0,1.0,0,1.0,0,1.0,0,1.0
364,'99',0.0,0.0,33.333,-33.333,1.77919553,0,100.0,0.0,1.0,0.0,0.0,1.0,0,100.0,42.029,27.029,1,1.0,0,1.0,0,1.0,0,1.0,0,1.0
370,'1',0.0,0.0,92.945,-62.0,1.70950947,0,100.0,0.0,1.0,0.0,0.0,1.0,0,100.0,267.313,99.538,1,1.0,0,1.0,0,1.0,0,1.0,0,1.0
370,'2',0.0,0.0,92.945,-62.0,1.70950947,0,100.0,0.0,1.0,0.0,0.0,1.0,0,100.0,267.313,99.538,1,1.0,0,1.0,0,1.0,0,1.0,0,1.0
370,'3',0.0,0.0,92.945,-75.0,1.70950947,0,100.0,0.0,1.0,0.0,0.0,1.0,0,100.0,267.313,99.538,1,1.0,0,1.0,0,1.0,0,1.0,0,1.0
371,'1',0.0,0.0,65.514,-65.514,1.70963168,0,100.0,0.0,1.0,0.0,0.0,1.0,0,100.0,188.421,2.0,1,1.0,0,1.0,0,1.0,0,1.0,0,1.0
373,'1',0.0,0.0,20.13,-20.13,1.48208403,0,100.0,0.0,1.0,0.0,0.0,1.0,0,100.0,57.895,26.0,1,1.0,0,1.0,0,1.0,0,1.0,0,1.0
374,'1',0.0,0.0,18.333,-18.333,1.48186774,0,100.0,0.0,1.0,0.0,0.0,1.0,0,100.0,55.0,26.0,1,1.0,0,1.0,0,1.0,0,1.0,0,1.0
375,'1',0.0,0.0,107.604,-107.604,1.55265781,0,100.0,0.0,1.0,0.0,0.0,1.0,0,100.0,309.474,2.0,1,1.0,0,1.0,0,1.0,0,1.0,0,1.0
376,'1',0.0,0.0,9.516,-9.516,1.55912855,0,100.0,0.0,1.0,0.0,0.0,1.0,0,100.0,27.368,2.0,1,1.0,0,1.0,0,1.0,0,1.0,0,1.0
376,'99',0.0,0.0,33.333,-33.333,1.55912855,0,100.0,0.0,1.0,0.0,0.0,1.0,0,100.0,261.0,3.293,1,1.0,0,1.0,0,1.0,0,1.0,0,1.0
380,'99',0.0,0.0,33.333,-33.333,1.53134592,0,100.0,0.0,1.0,0.0,0.0,1.0,0,100.0,33.035,18.035,1,1.0,0,1.0,0,1.0,0,1.0,0,1.0
384,'1',0.0,0.0,6.588,-6.588,1.46472251,0,100.0,0.0,1.0,0.0,0.0,1.0,0,100.0,18.947,2.0,1,1.0,0,1.0,0,1.0,0,1.0,0,1.0
385,'1',0.0,0.0,8.052,-8.052,1.46459123,0,100.0,0.0,1.0,0.0,0.0,1.0,0,100.0,23.158,2.0,1,1.0,0,1.0,0,1.0,0,1.0,0,1.0
390,'99',0.0,0.0,33.333,-33.333,1.69522078,0,100.0,0.0,1.0,0.0,0.0,1.0,0,100.0,28.078,13.078,1,1.0,0,1.0,0,1.0,0,1.0,0,1.0
391,'1',0.0,0.0,108.336,-108.336,1.50066402,0,100.0,0.0,1.0,0.0,0.0,1.0,0,100.0,311.579,2.0,1,1.0,0,1.0,0,1.0,0,1.0,0,1.0
395,'1',0.0,0.0,97.722,-97.722,1.46316162,0,100.0,0.0,1.0,0.0,0.0,1.0,0,100.0,281.053,2.0,1,1.0,0,1.0,0,1.0,0,1.0,0,1.0
401,'1',0.0,0.0,94.794,-94.794,1.53111329,0,100.0,0.0,1.0,0.0,0.0,1.0,0,100.0,272.632,2.0,1,1.0,0,1.0,0,1.0,0,1.0,0,1.0
402,'1',0.0,0.0,96.258,-96.258,1.64279314,0,100.0,0.0,1.0,0.0,0.0,1.0,0,100.0,276.842,2.0,1,1.0,0,1.0,0,1.0,0,1.0,0,1.0
408,'1',0.0,0.0,107.97,-107.97,1.63072914,0,100.0,0.0,1.0,0.0,0.0,1.0,0,100.0,310.526,2.0,1,1.0,0,1.0,0,1.0,0,1.0,0,1.0
414,'1',0.0,0.0,100.65,-100.65,1.46508148,0,100.0,0.0,1.0,0.0,0.0,1.0,0,100.0,289.474,2.0,1,1.0,0,1.0,0,1.0,0,1.0,0,1.0
416,'1',126.11852471,-82.41360512,101.016,-101.016,1.47489636,0,100.0,0.0,1.0,0.0,0.0,1.0,1,100.0,290.526,2.0,1,1.0,0,1.0,0,1.0,0,1.0,0,1.0
422,'99',57.13676895,-69.65912433,160.0,-160.0,1.53118825,0,100.0,0.0,1.0,0.0,0.0,1.0,1,100.0,123.413,3.78,1,1.0,0,1.0,0,1.0,0,1.0,0,1.0
428,'1',130.42484044,-5.11293953,101.016,-101.016,1.63389137,0,100.0,0.0,1.0,0.0,0.0,1.0,1,100.0,290.526,2.0,1,1.0,0,1.0,0,1.0,0,1.0,0,1.0
428,'2',0.0,0.0,97.356,-97.356,1.63389137,0,100.0,0.0,1.0,0.0,0.0,1.0,0,100.0,280.0,2.0,1,1.0,0,1.0,0,1.0,0,1.0,0,1.0
428,'3',0.0,0.0,107.97,-107.97,1.63389137,0,100.0,0.0,1.0,0.0,0.0,1.0,0,100.0,310.526,2.0,1,1.0,0,1.0,0,1.0,0,1.0,0,1.0
436,'99',57.90080798,-92.48540434,160.0,-160.0,1.54867745,0,100.0,0.0,1.0,0.0,0.0,1.0,1,100.0,121.822,11.915,1,1.0,0,1.0,0,1.0,0,1.0,0,1.0
437,'99',82.60172126,-90.74049798,160.0,-160.0,1.5475426,0,100.0,0.0,1.0,0.0,0.0,1.0,1,100.0,179.592,22.39,1,1.0,0,1.0,0,1.0,0,1.0,0,1.0
442,'99',0.0,0.0,33.333,-33.333,1.64688913,0,100.0,0.0,1.0,0.0,0.0,1.0,0,100.0,275.0,2.602,1,1.0,0,1.0,0,1.0,0,1.0,0,1.0
443,'99',0.0,0.0,33.333,-33.333,1.65561053,0,100.0,0.0,1.0,0.0,0.0,1.0,0,100.0,29.367,14.367,1,1.0,0,1.0,0,1.0,0,1.0,0,1.0
444,'1',0.0,0.0,1.333,-1.333,1.54245174,0,100.0,0.0,1.0,0.0,0.0,1.0,0,100.0,289.0,3.0,1,1.0,0,1.0,0,1.0,0,1.0,0,1.0
449,'99',24.36029346,-15.24933855,160.0,-160.0,1.62990808,0,100.0,0.0,1.0,0.0,0.0,1.0,1,100.0,47.8,6.299,1,1.0,0,1.0,0,1.0,0,1.0,0,1.0
469,'1',112.22764735,16.67417334,92.964,-92.964,1.58252812,0,100.0,0.0,1.0,0.0,0.0,1.0,1,100.0,267.368,2.0,1,1.0,0,1.0,0,1.0,0,1.0,0,1.0
470,'1',0.0,0.0,11.667,-11.667,1.56344559,0,100.0,0.0,1.0,0.0,0.0,1.0,0,100.0,35.0,9.0,1,1.0,0,1.0,0,1.0,0,1.0,0,1.0
470,'2',0.0,0.0,9.201,-9.201,1.56344559,0,100.0,0.0,1.0,0.0,0.0,1.0,0,100.0,26.461,9.0,1,1.0,0,1.0,0,1.0,0,1.0,0,1.0
471,'1',0.0,0.0,11.667,-11.667,1.56294214,0,100.0,0.0,1.0,0.0,0.0,1.0,0,100.0,35.0,9.0,1,1.0,0,1.0,0,1.0,0,1.0,0,1.0
471,'2',0.0,0.0,10.0,-10.0,1.56294214,0,100.0,0.0,1.0,0.0,0.0,1.0,0,100.0,30.0,9.0,1,1.0,0,1.0,0,1.0,0,1.0,0,1.0
471,'3',0.0,0.0,9.333,-9.333,1.56294214,0,100.0,0.0,1.0,0.0,0.0,1.0,0,100.0,28.0,9.0,1,1.0,0,1.0,0,1.0,0,1.0,0,1.0
474,'99',35.34748226,72.63682539,160.0,-160.0,1.58992946,0,100.0,0.0,1.0,0.0,0.0,1.0,1,100.0,70.019,10.13,1,1.0,0,1.0,0,1.0,0,1.0,0,1.0
480,'99',34.08330852,-53.16383906,160.0,-160.0,1.64606993,0,100.0,0.0,1.0,0.0,0.0,1.0,1,100.0,65.965,14.473,1,1.0,0,1.0,0,1.0,0,1.0,0,1.0
481,'99',27.73544139,-64.05613134,160.0,-160.0,1.65676751,0,100.0,0.0,1.0,0.0,0.0,1.0,1,100.0,53.3,10.82,1,1.0,0,1.0,0,1.0,0,1.0,0,1.0
482,'99',51.954753,-40.32945173,160.0,-160.0,1.61337286,0,100.0,0.0,1.0,0.0,0.0,1.0,1,100.0,100.941,24.561,1,1.0,0,1.0,0,1.0,0,1.0,0,1.0
483,'99',115.81487699,-92.51606445,160.0,-160.0,1.55876074,0,100.0,0.0,1.0,0.0,0.0,1.0,1,100.0,306.331,50.888,1,1.0,0,1.0,0,1.0,0,1.0,0,1.0
487,'99',68.78448628,-48.33703397,160.0,-160.0,1.63818402,0,100.0,0.0,1.0,0.0,0.0,1.0,1,100.0,135.14,34.426,1,1.0,0,1.0,0,1.0,0,1.0,0,1.0
490,'99',43.97426721,-42.76298833,160.0,-160.0,1.62498292,0,100.0,0.0,1.0,0.0,0.0,1.0,1,100.0,83.565,19.549,1,1.0,0,1.0,0,1.0,0,1.0,0,1.0
494,'99',40.14151448,-12.78707566,160.0,-160.0,1.56908025,0,100.0,0.0,1.0,0.0,0.0,1.0,1,100.0,83.599,10.194,1,1.0,0,1.0,0,1.0,0,1.0,0,1.0
499,'99',45.43832251,-17.32860786,160.0,-160.0,1.61206574,0,100.0,0.0,1.0,0.0,0.0,1.0,1,100.0,89.883,18.303,1,1.0,0,1.0,0,1.0,0,1.0,0,1.0
525,'99',0.0,0.0,33.333,-33.333,1.64086929,0,100.0,0.0,1.0,0.0,0.0,1.0,0,100.0,203.917,188.917,1,1.0,0,1.0,0,1.0,0,1.0,0,1.0
549,'99',29.21414502,-75.62056602,160.0,-160.0,1.48727227,0,100.0,0.0,1.0,0.0,0.0,1.0,1,100.0,58.576,7.318,1,1.0,0,1.0,0,1.0,0,1.0,0,1.0
559,'1',0.0,0.0,31.015,-31.015,1.62134703,0,100.0,0.0,1.0,0.0,0.0,1.0,0,100.0,80.5,31.0,1,1.0,0,1.0,0,1.0,0,1.0,0,1.0
564,'1',0.0,0.0,47.69,-11.618,1.63593557,0,100.0,0.0,1.0,0.0,0.0,1.0,0,100.0,137.159,36.178,1,1.0,0,1.0,0,1.0,0,1.0,0,1.0
565,'1',0.0,0.0,47.692,-11.62,1.63593557,0,100.0,0.0,1.0,0.0,0.0,1.0,0,100.0,137.164,38.4,1,1.0,0,1.0,0,1.0,0,1.0,0,1.0
566,'1',0.0,0.0,47.692,-11.62,1.63593557,0,100.0,0.0,1.0,0.0,0.0,1.0,0,100.0,137.164,26.42,1,1.0,0,1.0,0,1.0,0,1.0,0,1.0
567,'1',0.0,0.0,47.692,-11.62,1.63593557,0,100.0,0.0,1.0,0.0,0.0,1.0,0,100.0,137.164,13.12,1,1.0,0,1.0,0,1.0,0,1.0,0,1.0
568,'1',0.0,0.0,47.69,-11.618,1.63593557,0,100.0,0.0,1.0,0.0,0.0,1.0,0,100.0,137.159,52.077,1,1.0,0,1.0,0,1.0,0,1.0,0,1.0
569,'1',0.0,0.0,47.692,-11.62,1.63593557,0,100.0,0.0,1.0,0.0,0.0,1.0,0,100.0,137.164,23.76,1,1.0,0,1.0,0,1.0,0,1.0,0,1.0
570,'1',0.0,0.0,44.179,-44.179,1.63593557,0,100.0,0.0,1.0,0.0,0.0,1.0,0,100.0,95.0,40.98,1,1.0,0,1.0,0,1.0,0,1.0,0,1.0
571,'1',67.05051118,9.03076354,43.286,-10.545,1.63685108,0,100.0,0.0,1.0,0.0,0.0,1.0,1,100.0,124.493,41.357,1,1.0,0,1.0,0,1.0,0,1.0,0,1.0
572,'1',0.0,0.0,43.286,-10.54,1.63593557,0,100.0,0.0,1.0,0.0,0.0,1.0,0,100.0,124.493,39.82,1,1.0,0,1.0,0,1.0,0,1.0,0,1.0
573,'1',0.0,0.0,5.906,-5.906,1.59925658,0,100.0,0.0,1.0,0.0,0.0,1.0,0,100.0,16.985,2.0,1,1.0,0,1.0,0,1.0,0,1.0,0,1.0
576,'99',0.0,0.0,33.333,-33.333,1.51230532,0,100.0,0.0,1.0,0.0,0.0,1.0,0,100.0,85.769,70.769,1,1.0,0,1.0,0,1.0,0,1.0,0,1.0
578,'1',0.0,0.0,75.03,-21.0,1.57358194,0,100.0,0.0,1.0,0.0,0.0,1.0,0,100.0,215.789,135.0,1,1.0,0,1.0,0,1.0,0,1.0,0,1.0
579,'2',0.0,0.0,68.333,-68.333,1.57397601,0,100.0,0.0,1.0,0.0,0.0,1.0,0,100.0,205.0,135.0,1,1.0,0,1.0,0,1.0,0,1.0,0,1.0
579,'3',0.0,0.0,84.912,-31.0,1.57397601,0,100.0,0.0,1.0,0.0,0.0,1.0,0,100.0,244.211,100.0,1,1.0,0,1.0,0,1.0,0,1.0,0,1.0
579,'98',105.61847339,-121.39507376,183.0,-183.0,1.57397601,0,100.0,0.0,1.0,0.0,0.0,1.0,1,100.0,526.316,2.0,1,1.0,0,1.0,0,1.0,0,1.0,0,1.0
580,'1',0.0,0.0,91.616,-15.0,1.64742752,0,100.0,0.0,1.0,0.0,0.0,1.0,0,100.0,263.492,90.0,1,1.0,0,1.0,0,1.0,0,1.0,0,1.0
581,'1',0.0,0.0,77.333,-77.333,1.64787468,0,100.0,0.0,1.0,0.0,0.0,1.0,0,100.0,232.0,100.0,1,1.0,0,1.0,0,1.0,0,1.0,0,1.0
581,'2',0.0,0.0,91.5,-15.0,1.64787468,0,100.0,0.0,1.0,0.0,0.0,1.0,0,100.0,263.158,90.0,1,1.0,0,1.0,0,1.0,0,1.0,0,1.0
587,'99',237.57150432,-119.46980938,160.0,-160.0,1.70964921,0,100.0,0.0,1.0,0.0,0.0,1.0,1,100.0,963.105,72.892,1,1.0,0,1.0,0,1.0,0,1.0,0,1.0
591,'99',0.0,0.0,33.333,-33.333,1.68317328,0,100.0,0.0,1.0,0.0,0.0,1.0,0,100.0,74.949,59.949,1,1.0,0,1.0,0,1.0,0,1.0,0,1.0
596,'1',129.97661051,23.06875983,81.252,-19.0,1.58878197,0,100.0,0.0,1.0,0.0,0.0,1.0,1,100.0,233.684,90.0,1,1.0,0,1.0,0,1.0,0,1.0,0,1.0
599,'1',0.0,0.0,0.333,-0.333,1.86916137,0,100.0,0.0,1.0,0.0,0.0,1.0,0,100.0,299.0,2.0,1,1.0,0,1.0,0,1.0,0,1.0,0,1.0
602,'1',0.0,0.0,7.32,-7.32,1.69900782,0,100.0,0.0,1.0,0.0,0.0,1.0,0,100.0,21.053,5.0,1,1.0,0,1.0,0,1.0,0,1.0,0,1.0
611,'1',0.0,0.0,9.516,-9.516,1.70532512,0,100.0,0.0,1.0,0.0,0.0,1.0,0,100.0,27.368,2.0,1,1.0,0,1.0,0,1.0,0,1.0,0,1.0
619,'1',0.0,0.0,0.333,-0.333,1.84401737,0,100.0,0.0,1.0,0.0,0.0,1.0,0,100.0,252.0,2.0,1,1.0,0,1.0,0,1.0,0,1.0,0,1.0
620,'1',121.19757273,-69.36040417,94.428,-94.428,1.83724433,0,100.0,0.0,1.0,0.0,0.0,1.0,1,100.0,271.579,2.0,1,1.0,0,1.0,0,1.0,0,1.0,0,1.0
623,'99',0.0,0.0,33.333,-33.333,1.79049851,0,100.0,0.0,1.0,0.0,0.0,1.0,0,100.0,259.0,5.802,1,1.0,0,1.0,0,1.0,0,1.0,0,1.0
625,'1',0.0,0.0,18.3,-18.3,1.8542196,0,100.0,0.0,1.0,0.0,0.0,1.0,0,100.0,52.632,2.0,1,1.0,0,1.0,0,1.0,0,1.0,0,1.0
630,'1',133.7578569,-49.81790789,101.382,-101.382,1.57008383,0,100.0,0.0,1.0,0.0,0.0,1.0,1,100.0,291.579,2.0,1,1.0,0,1.0,0,1.0,0,1.0,0,1.0
633,'99',65.85589052,-135.57455131,160.0,-160.0,1.69384596,0,100.0,0.0,1.0,0.0,0.0,1.0,1,100.0,145.216,10.951,1,1.0,0,1.0,0,1.0,0,1.0,0,1.0
634,'99',114.40661524,-137.26026648,160.0,-160.0,1.68942153,0,100.0,0.0,1.0,0.0,0.0,1.0,1,100.0,296.567,15.443,1,1.0,0,1.0,0,1.0,0,1.0,0,1.0
639,'99',0.0,0.0,33.333,-33.333,1.53230227,0,100.0,0.0,1.0,0.0,0.0,1.0,0,100.0,85.248,70.248,1,1.0,0,1.0,0,1.0,0,1.0,0,1.0
640,'99',0.0,0.0,33.333,-33.333,1.53232574,0,100.0,0.0,1.0,0.0,0.0,1.0,0,100.0,221.788,206.788,1,1.0,0,1.0,0,1.0,0,1.0,0,1.0
645,'1',146.72664753,-39.76305458,92.855,-62.0,1.68596663,0,100.0,0.0,1.0,0.0,0.0,1.0,1,100.0,267.056,98.483,1,1.0,0,1.0,0,1.0,0,1.0,0,1.0
645,'2',0.0,0.0,92.855,-62.0,1.68596663,0,100.0,0.0,1.0,0.0,0.0,1.0,0,100.0,267.056,98.483,1,1.0,0,1.0,0,1.0,0,1.0,0,1.0
645,'3',146.72664753,-52.43342676,92.855,-75.0,1.68596663,0,100.0,0.0,1.0,0.0,0.0,1.0,1,100.0,267.056,98.483,1,1.0,0,1.0,0,1.0,0,1.0,0,1.0
646,'1',0.0,0.0,65.514,-65.514,1.68608407,0,100.0,0.0,1.0,0.0,0.0,1.0,0,100.0,188.421,2.0,1,1.0,0,1.0,0,1.0,0,1.0,0,1.0
648,'98',140.84726388,-110.59956892,183.0,-183.0,1.45138662,0,100.0,0.0,1.0,0.0,0.0,1.0,1,100.0,526.316,2.0,1,1.0,0,1.0,0,1.0,0,1.0,0,1.0
649,'1',0.0,0.0,20.13,-20.13,1.50618325,0,100.0,0.0,1.0,0.0,0.0,1.0,0,100.0,57.895,26.0,1,1.0,0,1.0,0,1.0,0,1.0,0,1.0
650,'1',0.0,0.0,18.333,-18.333,1.50557079,0,100.0,0.0,1.0,0.0,0.0,1.0,0,100.0,55.0,26.0,1,1.0,0,1.0,0,1.0,0,1.0,0,1.0
652,'1',132.10550029,25.5155019,98.82,-98.82,1.57751165,0,100.0,0.0,1.0,0.0,0.0,1.0,1,100.0,284.211,2.0,1,1.0,0,1.0,0,1.0,0,1.0,0,1.0
652,'98',121.0303128,77.09846,183.0,-183.0,1.57751165,0,100.0,0.0,1.0,0.0,0.0,1.0,1,100.0,526.316,2.0,1,1.0,0,1.0,0,1.0,0,1.0,0,1.0
659,'1',0.0,0.0,6.588,-6.588,1.47019902,0,100.0,0.0,1.0,0.0,0.0,1.0,0,100.0,18.947,2.0,1,1.0,0,1.0,0,1.0,0,1.0,0,1.0
660,'1',0.0,0.0,8.052,-8.052,1.46924115,0,100.0,0.0,1.0,0.0,0.0,1.0,0,100.0,23.158,2.0,1,1.0,0,1.0,0,1.0,0,1.0,0,1.0
667,'1',138.69695638,-21.68386207,108.702,-108.702,1.4950372,0,100.0,0.0,1.0,0.0,0.0,1.0,1,100.0,312.632,2.0,1,1.0,0,1.0,0,1.0,0,1.0,0,1.0
667,'98',170.55011365,-57.65413699,183.0,-183.0,1.4950372,0,100.0,0.0,1.0,0.0,0.0,1.0,1,100.0,526.316,2.0,1,1.0,0,1.0,0,1.0,0,1.0,0,1.0
674,'1',103.04865764,-58.4724759,100.284,-100.284,1.45586477,0,100.0,0.0,1.0,0.0,0.0,1.0,1,100.0,288.421,2.0,1,1.0,0,1.0,0,1.0,0,1.0,0,1.0
675,'1',8.44811858,-0.17352805,5.49,-5.49,1.56057563,0,100.0,0.0,1.0,0.0,0.0,1.0,1,100.0,15.789,2.0,1,1.0,0,1.0,0,1.0,0,1.0,0,1.0
679,'1',0.0,0.0,93.33,-93.33,1.56186797,0,100.0,0.0,1.0,0.0,0.0,1.0,0,100.0,268.421,2.0,1,1.0,0,1.0,0,1.0,0,1.0,0,1.0
684,'1',144.71861516,65.33962748,107.97,-107.97,1.5411428,0,100.0,0.0,1.0,0.0,0.0,1.0,1,100.0,310.526,2.0,1,1.0,0,1.0,0,1.0,0,1.0,0,1.0
684,'99',0.0,0.0,33.333,-33.333,1.5411428,0,100.0,0.0,1.0,0.0,0.0,1.0,0,100.0,34.44,19.44,1,1.0,0,1.0,0,1.0,0,1.0,0,1.0
688,'1',128.7757932,-41.11129787,98.088,-98.088,1.47292674,0,100.0,0.0,1.0,0.0,0.0,1.0,1,100.0,282.105,2.0,1,1.0,0,1.0,0,1.0,0,1.0,0,1.0
690,'1',0.0,0.0,106.506,-106.506,1.45037176,0,100.0,0.0,1.0,0.0,0.0,1.0,0,100.0,306.316,2.0,1,1.0,0,1.0,0,1.0,0,1.0,0,1.0
690,'98',159.98407519,-100.47800793,183.0,-183.0,1.45037176,0,100.0,0.0,1.0,0.0,0.0,1.0,1,100.0,526.316,2.0,1,1.0,0,1.0,0,1.0,0,1.0,0,1.0
693,'98',94.4652163,-134.43699201,183.0,-183.0,1.45502724,0,100.0,0.0,1.0,0.0,0.0,1.0,1,100.0,526.316,2.0,1,1.0,0,1.0,0,1.0,0,1.0,0,1.0
696,'99',0.0,0.0,33.333,-33.333,1.60098576,0,100.0,0.0,1.0,0.0,0.0,1.0,0,100.0,28.122,13.122,1,1.0,0,1.0,0,1.0,0,1.0,0,1.0
697,'99',0.0,0.0,33.333,-33.333,1.59496276,0,100.0,0.0,1.0,0.0,0.0,1.0,0,100.0,257.0,4.417,1,1.0,0,1.0,0,1.0,0,1.0,0,1.0
...
0 / END OF GENERATOR DATA BEGIN BRANCH DATA
1,60,'1',0.02461,0.07336,0.00802,320.0,320.0,320.0,0.0,0.0,0.0,0.0,1,1,0.0,1,1.0,0,1.0,0,1.0,0,1.0
1,93,'1',0.03244,0.09513,0.01073,320.0,320.0,320.0,0.0,0.0,0.0,0.0,1,1,0.0,1,1.0,0,1.0,0,1.0,0,1.0
2,74,'1',0.00068,0.00368,0.00043,312.5,312.5,312.5,0.0,0.0,0.0,0.0,1,1,0.0,1,1.0,0,1.0,0,1.0,0,1.0
2,549,'1',0.0001,0.01,0.0,299.525,359.5,359.5,0.0,0.0,0.0,0.0,1,1,0.0,1,1.0,0,1.0,0,1.0,0,1.0
4,43,'1',0.0037,0.01909,0.00247,475.0,475.0,475.0,0.0,0.0,0.0,0.0,1,1,0.0,1,1.0,0,1.0,0,1.0,0,1.0
4,93,'1',0.00349,0.01802,0.00231,475.0,475.0,475.0,0.0,0.0,0.0,0.0,1,1,0.0,1,1.0,0,1.0,0,1.0,0,1.0
7,60,'1',0.01649,0.04916,0.00537,320.0,320.0,320.0,0.0,0.0,0.0,0.0,1,1,0.0,1,1.0,0,1.0,0,1.0,0,1.0
7,73,'1',0.00374,0.01116,0.00122,320.0,320.0,320.0,0.0,0.0,0.0,0.0,1,1,0.0,1,1.0,0,1.0,0,1.0,0,1.0
10,27,'1',0.0125,0.02353,0.00262,185.0,185.0,185.0,0.0,0.0,0.0,0.0,1,1,0.0,1,1.0,0,1.0,0,1.0,0,1.0
11,92,'1',0.00236,0.00669,0.00079,155.0,155.0,155.0,0.0,0.0,0.0,0.0,1,1,0.0,1,1.0,0,1.0,0,1.0,0,1.0
16,93,'1',0.00506,0.01482,0.00168,833.625,962.0,962.0,0.0,0.0,0.0,0.0,1,1,0.0,1,1.0,0,1.0,0,1.0,0,1.0
17,81,'1',0.00892,0.05374,0.01281,622.5,622.5,622.5,0.0,0.0,0.0,0.0,1,1,0.0,1,1.0,0,1.0,0,1.0,0,1.0
17,93,'1',0.0001,0.001,0.0,650.0,780.0,780.0,0.0,0.0,0.0,0.0,1,1,0.0,1,1.0,0,1.0,0,1.0,0,1.0
18,66,'1',2e-05,0.001,0.0,832.5,875.0,875.0,0.0,0.0,0.0,0.0,1,1,0.0,1,1.0,0,1.0,0,1.0,0,1.0
19,31,'1',0.00071,0.00582,0.01221,1275.0,1275.0,1275.0,0.0,0.0,0.0,0.0,1,1,0.0,1,1.0,0,1.0,0,1.0,0,1.0
19,35,'1',7e-05,0.001,0.00171,1410.0,1530.0,1530.0,0.0,0.0,0.0,0.0,1,1,0.0,1,1.0,0,1.0,0,1.0,0,1.0
19,69,'1',0.0001,0.001,0.0,650.0,780.0,780.0,0.0,0.0,0.0,0.0,1,1,0.0,1,1.0,0,1.0,0,1.0,0,1.0
21,57,'1',0.04598,0.09139,0.00983,215.0,215.0,215.0,0.0,0.0,0.0,0.0,1,1,0.0,1,1.0,0,1.0,0,1.0,0,1.0
21,91,'1',0.02947,0.10073,0.01266,215.0,215.0,215.0,0.0,0.0,0.0,0.0,1,1,0.0,1,1.0,0,1.0,0,1.0,0,1.0
22,67,'1',0.01108,0.04402,0.00618,590.675,708.75,708.75,0.0,0.0,0.0,0.0,1,1,0.0,1,1.0,0,1.0,0,1.0,0,1.0
22,73,'1',0.00993,0.03804,0.00535,563.65,676.5,676.5,0.0,0.0,0.0,0.0,1,1,0.0,1,1.0,0,1.0,0,1.0,0,1.0
23,44,'1',0.00266,0.01058,0.0015,692.325,830.75,830.75,0.0,0.0,0.0,0.0,1,1,0.0,1,1.0,0,1.0,0,1.0,0,1.0
23,137,'1',0.0001,0.01,0.0,381.875,458.25,458.25,0.0,0.0,0.0,0.0,1,1,0.0,1,1.0,0,1.0,0,1.0,0,1.0
23,254,'1',0.0001,0.01,0.0,750.0,1000.0,1000.0,0.0,0.0,0.0,0.0,1,1,0.0,1,1.0,0,1.0,0,1.0,0,1.0
24,94,'1',0.00489,0.02021,0.00261,352.5,382.5,382.5,0.0,0.0,0.0,0.0,1,1,0.0,1,1.0,0,1.0,0,1.0,0,1.0
27,72,'1',0.01151,0.02166,0.00241,185.0,185.0,185.0,0.0,0.0,0.0,0.0,1,1,0.0,1,1.0,0,1.0,0,1.0,0,1.0
30,73,'1',0.01736,0.07168,0.00928,412.5,412.5,412.5,0.0,0.0,0.0,0.0,1,1,0.0,1,1.0,0,1.0,0,1.0,0,1.0
30,94,'1',0.01303,0.05385,0.00695,352.5,382.5,382.5,0.0,0.0,0.0,0.0,1,1,0.0,1,1.0,0,1.0,0,1.0,0,1.0
31,38,'1',0.00032,0.00211,0.00427,1015.0,1080.0,1080.0,0.0,0.0,0.0,0.0,1,1,0.0,1,1.0,0,1.0,0,1.0,0,1.0
31,66,'1',0.00151,0.01243,0.02626,1242.5,1242.5,1242.5,0.0,0.0,0.0,0.0,1,1,0.0,1,1.0,0,1.0,0,1.0,0,1.0
31,66,'2',0.00151,0.01236,0.02612,1275.0,1275.0,1275.0,0.0,0.0,0.0,0.0,1,1,0.0,1,1.0,0,1.0,0,1.0,0,1.0
32,50,'1',0.0092,0.02296,0.00287,650.0,780.0,780.0,0.0,0.0,0.0,0.0,1,1,0.0,1,1.0,0,1.0,0,1.0,0,1.0
32,72,'1',0.02022,0.04363,0.00517,185.0,185.0,185.0,0.0,0.0,0.0,0.0,1,1,0.0,1,1.0,0,1.0,0,1.0,0,1.0
33,36,'1',0.0001,0.001,0.0,650.0,780.0,780.0,0.0,0.0,0.0,0.0,1,1,0.0,1,1.0,0,1.0,0,1.0,0,1.0
36,38,'1',0.00062,0.00521,0.01419,1582.5,1582.5,1582.5,0.0,0.0,0.0,0.0,1,1,0.0,1,1.0,0,1.0,0,1.0,0,1.0
36,45,'1',0.0001,0.001,0.0,650.0,780.0,780.0,0.0,0.0,0.0,0.0,1,1,0.0,1,1.0,0,1.0,0,1.0,0,1.0
36,483,'1',0.0001,0.01,0.0,643.975,743.0,743.0,0.0,0.0,0.0,0.0,1,1,0.0,1,1.0,0,1.0,0,1.0,0,1.0
37,55,'1',0.00249,0.02091,0.043,1275.0,1275.0,1275.0,0.0,0.0,0.0,0.0,1,1,0.0,1,1.0,0,1.0,0,1.0,0,1.0
37,79,'1',0.00037,0.00306,0.00647,1275.0,1275.0,1275.0,0.0,0.0,0.0,0.0,1,1,0.0,1,1.0,0,1.0,0,1.0,0,1.0
40,47,'1',0.00855,0.03356,0.00426,400.0,400.0,400.0,0.0,0.0,0.0,0.0,1,1,0.0,1,1.0,0,1.0,0,1.0,0,1.0
40,93,'1',0.01448,0.0565,0.00724,400.0,400.0,400.0,0.0,0.0,0.0,0.0,1,1,0.0,1,1.0,0,1.0,0,1.0,0,1.0
41,46,'1',0.00572,0.03592,0.12701,1542.5,1542.5,1542.5,0.0,0.0,0.0,0.0,1,1,0.0,1,1.0,0,1.0,0,1.0,0,1.0
41,87,'1',0.0001,0.001,0.0,650.0,780.0,780.0,0.0,0.0,0.0,0.0,1,1,0.0,1,1.0,0,1.0,0,1.0,0,1.0
44,67,'1',0.01683,0.06688,0.0094,662.25,794.75,794.75,0.0,0.0,0.0,0.0,1,1,0.0,1,1.0,0,1.0,0,1.0,0,1.0
46,90,'1',0.00242,0.01482,0.05476,1645.0,1645.0,1645.0,0.0,0.0,0.0,0.0,1,1,0.0,1,1.0,0,1.0,0,1.0,0,1.0
50,74,'1',0.00113,0.00465,0.00061,185.0,185.0,185.0,0.0,0.0,0.0,0.0,1,1,0.0,1,1.0,0,1.0,0,1.0,0,1.0
52,87,'1',0.0001,0.001,0.0,650.0,780.0,780.0,0.0,0.0,0.0,0.0,1,1,0.0,1,1.0,0,1.0,0,1.0,0,1.0
53,62,'1',0.00689,0.01291,0.00144,185.0,185.0,185.0,0.0,0.0,0.0,0.0,1,1,0.0,1,1.0,0,1.0,0,1.0,0,1.0
53,82,'1',0.00037,0.001,0.0,185.0,185.0,185.0,0.0,0.0,0.0,0.0,1,1,0.0,1,1.0,0,1.0,0,1.0,0,1.0
57,85,'1',0.0002,0.001,0.0,215.0,215.0,215.0,0.0,0.0,0.0,0.0,1,1,0.0,1,1.0,0,1.0,0,1.0,0,1.0
58,76,'1',0.02397,0.04498,0.00499,185.0,185.0,185.0,0.0,0.0,0.0,0.0,1,1,0.0,1,1.0,0,1.0,0,1.0,0,1.0
58,91,'1',0.0293,0.08307,0.00997,320.0,320.0,320.0,0.0,0.0,0.0,0.0,1,1,0.0,1,1.0,0,1.0,0,1.0,0,1.0
58,92,'1',0.03256,0.0924,0.01108,147.5,147.5,147.5,0.0,0.0,0.0,0.0,1,1,0.0,1,1.0,0,1.0,0,1.0,0,1.0
58,499,'1',0.0001,0.01,0.0,347.95,417.5,417.5,0.0,0.0,0.0,0.0,1,1,0.0,1,1.0,0,1.0,0,1.0,0,1.0
62,76,'1',0.00523,0.00981,0.00108,185.0,185.0,185.0,0.0,0.0,0.0,0.0,1,1,0.0,1,1.0,0,1.0,0,1.0,0,1.0
63,90,'1',0.00075,0.00528,0.02325,827.5,827.5,827.5,0.0,0.0,0.0,0.0,1,1,0.0,1,1.0,0,1.0,0,1.0,0,1.0
68,83,'1',0.01058,0.02193,0.00216,215.0,215.0,215.0,0.0,0.0,0.0,0.0,1,1,0.0,1,1.0,0,1.0,0,1.0,0,1.0
68,84,'1',0.0059,0.01222,0.00121,215.0,215.0,215.0,0.0,0.0,0.0,0.0,1,1,0.0,1,1.0,0,1.0,0,1.0,0,1.0
69,86,'1',0.00519,0.04108,0.09283,1275.0,1275.0,1275.0,0.0,0.0,0.0,0.0,1,1,0.0,1,1.0,0,1.0,0,1.0,0,1.0
71,93,'1',0.03778,0.11512,0.0141,320.0,320.0,320.0,0.0,0.0,0.0,0.0,1,1,0.0,1,1.0,0,1.0,0,1.0,0,1.0
79,87,'1',0.00493,0.0412,0.0844,1275.0,1275.0,1275.0,0.0,0.0,0.0,0.0,1,1,0.0,1,1.0,0,1.0,0,1.0,0,1.0
81,494,'1',0.0001,0.01,0.0,589.625,680.25,680.25,0.0,0.0,0.0,0.0,1,1,0.0,1,1.0,0,1.0,0,1.0,0,1.0
83,91,'1',0.0039,0.01106,0.00133,215.0,215.0,215.0,0.0,0.0,0.0,0.0,1,1,0.0,1,1.0,0,1.0,0,1.0,0,1.0
95,96,'1',2e-05,0.00021,0.0,2190.0,2190.0,2190.0,0.0,0.0,0.0,0.0,1,1,0.0,1,1.0,0,1.0,0,1.0,0,1.0
95,99,'1',0.00171,0.00961,0.01424,625.0,625.0,625.0,0.0,0.0,0.0,0.0,1,1,0.0,1,1.0,0,1.0,0,1.0,0,1.0
96,748,'1',0.0001,0.01,0.0,304.525,365.5,365.5,0.0,0.0,0.0,0.0,1,1,0.0,1,1.0,0,1.0,0,1.0,0,1.0
97,98,'1',2e-05,0.00021,0.0,2190.0,2190.0,2190.0,0.0,0.0,0.0,0.0,1,1,0.0,1,1.0,0,1.0,0,1.0,0,1.0
97,100,'1',0.00194,0.01415,0.0223,852.5,852.5,852.5,0.0,0.0,0.0,0.0,1,1,0.0,1,1.0,0,1.0,0,1.0,0,1.0
97,697,'1',0.0001,0.01,0.0,209.25,246.5,246.5,0.0,0.0,0.0,0.0,1,1,0.0,1,1.0,0,1.0,0,1.0,0,1.0
98,749,'1',0.0001,0.01,0.0,306.375,353.5,353.5,0.0,0.0,0.0,0.0,1,1,0.0,1,1.0,0,1.0,0,1.0,0,1.0
99,100,'1',2e-05,0.00021,0.0,2190.0,2190.0,2190.0,0.0,0.0,0.0,0.0,1,1,0.0,1,1.0,0,1.0,0,1.0,0,1.0
99,102,'1',0.00537,0.04039,0.06005,797.5,797.5,797.5,0.0,0.0,0.0,0.0,1,1,0.0,1,1.0,0,1.0,0,1.0,0,1.0
100,698,'1',0.0001,0.01,0.0,469.7,542.0,542.0,0.0,0.0,0.0,0.0,1,1,0.0,1,1.0,0,1.0,0,1.0,0,1.0
101,102,'1',0.00066,0.00496,0.00758,797.5,797.5,797.5,0.0,0.0,0.0,0.0,1,1,0.0,1,1.0,0,1.0,0,1.0,0,1.0
101,696,'1',0.0001,0.01,0.0,314.5,377.5,377.5,0.0,0.0,0.0,0.0,1,1,0.0,1,1.0,0,1.0,0,1.0,0,1.0
102,747,'1',0.0001,0.01,0.0,646.825,746.25,746.25,0.0,0.0,0.0,0.0,1,1,0.0,1,1.0,0,1.0,0,1.0,0,1.0
103,152,'1',0.01248,0.04595,0.00524,187.5,187.5,187.5,0.0,0.0,0.0,0.0,1,1,0.0,1,1.0,0,1.0,0,1.0,0,1.0
104,105,'1',8e-05,0.00083,0.0,1585.275,1829.25,1829.25,0.0,0.0,0.0,0.0,1,1,0.0,1,1.0,0,1.0,0,1.0,0,1.0
104,170,'1',0.00364,0.01149,0.00123,1611.725,1859.75,1859.75,0.0,0.0,0.0,0.0,1,1,0.0,1,1.0,0,1.0,0,1.0,0,1.0
105,180,'1',0.00653,0.02058,0.00222,1570.575,1812.25,1812.25,0.0,0.0,0.0,0.0,1,1,0.0,1,1.0,0,1.0,0,1.0,0,1.0
106,107,'1',8e-05,0.00083,0.0,1095.0,1095.0,1095.0,0.0,0.0,0.0,0.0,1,1,0.0,1,1.0,0,1.0,0,1.0,0,1.0
106,140,'1',0.00488,0.01231,0.00189,186.55,242.5,242.5,0.0,0.0,0.0,0.0,1,1,0.0,1,1.0,0,1.0,0,1.0,0,1.0
107,203,'1',0.00074,0.00223,0.0003,155.0,155.0,155.0,0.0,0.0,0.0,0.0,1,1,0.0,1,1.0,0,1.0,0,1.0,0,1.0
108,170,'1',0.00157,0.00463,0.00057,1633.65,1885.0,1885.0,0.0,0.0,0.0,0.0,1,1,0.0,1,1.0,0,1.0,0,1.0,0,1.0
...